
 ===================================================
  XFOIL Version 6.96
  Copyright (C) 2000   Mark Drela, Harold Youngren

  This software comes with ABSOLUTELY NO WARRANTY,
    subject to the GNU General Public License.

  Caveat computor
 ===================================================

 File  xfoil.def  not found

   QUIT    Exit program

  .OPER    Direct operating point(s)
  .MDES    Complex mapping design routine
  .QDES    Surface speed design routine
  .GDES    Geometry design routine

   SAVE f  Write airfoil to labeled coordinate file
   PSAV f  Write airfoil to plain coordinate file
   ISAV f  Write airfoil to ISES coordinate file
   MSAV f  Write airfoil to MSES coordinate file
   REVE    Reverse written-airfoil node ordering

   LOAD f  Read buffer airfoil from coordinate file
   NACA i  Set NACA 4,5-digit airfoil and buffer airfoil
   INTE    Set buffer airfoil by interpolating two airfoils
   NORM    Buffer airfoil normalization toggle
   XYCM rr Change CM reference location, currently  0.25000 0.00000

   BEND    Display structural properties of current airfoil

   PCOP    Set current-airfoil panel nodes directly from buffer airfoil points
   PANE    Set current-airfoil panel nodes ( 160 ) based on curvature
  .PPAR    Show/change paneling

  .PLOP    Plotting options

   WDEF f  Write  current-settings file
   RDEF f  Reread current-settings file
   NAME s  Specify new airfoil name
   NINC    Increment name version number

   Z       Zoom    | (available in all menus)
   U       Unzoom  | 

 XFOIL   c>   
 Labeled airfoil file.  Name:  AIRFOIL_GEO                                     

 Number of input coordinate points:  99
 Clockwise ordering
 Max thickness =     6.234406  at x =  15.702
 Max camber    =     1.039724  at x =  15.702

  LE  x,y  =   0.00029   0.11945  |   Chord =  53.53928
  TE  x,y  =  53.53419  -0.63902  |

 Current airfoil nodes set from buffer airfoil nodes (  99 )

 XFOIL   c>   
 Area =   237.7263    
 Slen =   109.7079    
 
 X-bending parameters:
   centroid   Xc  =   23.35119    
        max X-Xc  =   30.18300    
        min X-Xc  =  -23.35049    
      solid Iyy   =   40336.71    
      skin  Iyy/t =   28252.79    
  solid Iyy/(X-Xc)=   1336.405    
  skin Iyy/t(X-Xc)=   936.0500    
 
 Y-bending parameters:
   centroid   Yc  =  0.3387237    
        max Y-Yc  =   3.716785    
        min Y-Yc  =  -2.845761    
      solid Ixx   =   629.7492    
      skin  Ixx/t =   662.6724    
  solid Ixx/(Y-Yc)=   169.4338    
  skin Ixx/t(Y-Yc)=   178.2918    
 
     solid J     =   2133.402    
     skin  J/t   =   2060.517    

 XFOIL   c>  
    Present paneling parameters...
  N  i   Number of panel nodes       160
  P  r   Panel bunching parameter    1.000
  T  r   TE/LE panel density ratio   0.150
  R  r   Refined area/LE  panel density ratio   0.200
  XT rr  Top    side refined area x/c limits    1.000 1.000
  XB rr  Bottom side refined area x/c limits    1.000 1.000
  Z oom
  U nzoom

Change what ? (<cr> if nothing else)   c>  
Change what ? (<cr> if nothing else)   c>  
 Blunt trailing edge.  Gap =  0.49428

 Maximum panel corner angle = 10.669   at  i,x,y  =  99   0.0237   0.2825

 X-window size changed to  11.00" x  8.18"

    Present paneling parameters...
  N  i   Number of panel nodes       200
  P  r   Panel bunching parameter    1.000
  T  r   TE/LE panel density ratio   0.150
  R  r   Refined area/LE  panel density ratio   0.200
  XT rr  Top    side refined area x/c limits    1.000 1.000
  XB rr  Bottom side refined area x/c limits    1.000 1.000
  Z oom
  U nzoom

Change what ? (<cr> if nothing else)   c>  
 XFOIL   c>   
 You are working with the buffer airfoil

.GDES   c>  
  i        x         y         s       theta        curv
   1  53.53419  -0.39188   0.00000     -4.779       0.000
   2  51.30360  -0.20652   2.23828     -4.722       0.000
   3  49.07301  -0.02252   4.47645     -4.733      -0.001
   4  46.84242   0.17119   6.71543     -5.383      -0.009
   5  44.61183   0.41317   8.95911     -7.198      -0.019
   6  42.38123   0.73769  11.21319     -9.227      -0.013
   7  40.15064   1.12413  13.47701    -10.210      -0.002
   8  37.92005   1.52480  15.74330     -9.970       0.006
   9  35.68946   1.90306  18.00573     -9.334       0.004
  10  33.45887   2.26009  20.26472     -8.848       0.004
  11  31.22828   2.59676  22.52057     -8.303       0.005
  12  28.99769   2.91188  24.77331     -7.811       0.003
  13  26.76710   3.20903  27.02361     -7.338       0.004
  14  24.53650   3.48283  29.27094     -6.594       0.007
  15  22.30591   3.72021  31.51412     -5.504       0.010
  16  20.07532   3.90493  33.75235     -3.815       0.017
  17  17.84473   4.01440  35.98563     -1.865       0.014
  18  15.61414   4.05478  38.21659     -0.265       0.011
  19  15.00000   4.05551  38.83073      0.129       0.011
  20  14.37500   4.05196  39.45574      0.518       0.011
  21  13.75000   4.04418  40.08079      0.916       0.012
  22  13.12500   4.03181  40.70591      1.359       0.013
  23  12.50000   4.01435  41.33115      1.848       0.014
  24  11.87500   3.99126  41.95658      2.395       0.016
  25  11.25000   3.96174  42.58228      3.030       0.019
  26  10.62500   3.92475  43.20837      3.759       0.022
  27  10.00000   3.87927  43.83503      4.581       0.024
  28   9.37500   3.82424  44.46244      5.498       0.027
  29   8.75000   3.75857  45.09089      6.516       0.030
  30   8.12500   3.68112  45.72066      7.625       0.032
  31   7.50000   3.59067  46.35218      8.878       0.038
  32   6.87500   3.48466  46.98610     10.442       0.049
  33   6.25000   3.35936  47.62354     12.241       0.050
  34   5.62500   3.21095  48.26592     14.672       0.082
  35   5.00000   3.03498  48.91522     16.303       0.006
  36   4.37500   2.85000  49.56702     16.750       0.018
  37   3.75000   2.65000  50.22324     19.388       0.122
  38   3.12500   2.40000  50.89638     24.279       0.132
  39   2.50000   2.10000  51.58965     25.744      -0.058
  40   1.87500   1.80000  52.28292     26.590       0.101
  41   1.25000   1.45000  52.99925     32.503       0.188
  42   0.78526   1.11788  53.57047     38.579       0.184
  43   0.66000   1.01500  53.73256     40.184       0.162
  44   0.48383   0.86000  53.96722     42.572       0.193
  45   0.28298   0.66000  54.25066     47.933       0.469
  46   0.12250   0.46000  54.50708     54.438       0.411
  47   0.03000   0.30000  54.69189     68.947       2.341
  48   0.00800   0.22000  54.77486     80.455       2.535
  49   0.00080   0.13890  54.85628     87.945       0.674
  50   0.00071   0.09065  54.90453     92.855       2.887
  51   0.01014   0.01800  54.97779    100.420       0.728
  52   0.03900  -0.10000  55.09927    107.877       1.420
  53   0.11666  -0.28000  55.29531    116.299       0.089
  54   0.18375  -0.40726  55.43917    120.414       0.902
  55   0.23332  -0.48000  55.52720    129.775       2.838
  56   0.30013  -0.54688  55.62173    137.671       0.095
  57   0.46974  -0.69019  55.84378    143.483       0.821
  58   0.74584  -0.85112  56.16336    154.842       0.429
  59   1.25000  -1.03545  56.70016    163.441       0.128
  60   1.87500  -1.19337  57.34480    168.209       0.130
  61   2.50000  -1.30724  57.98009    170.243      -0.018
  62   3.12500  -1.41532  58.61436    170.408       0.027
  63   3.75000  -1.51604  59.24743    171.229       0.018
  64   4.37500  -1.60850  59.87923    171.968       0.023
  65   5.00000  -1.69214  60.50980    172.791       0.023
  66   5.62500  -1.76667  61.13923    173.605       0.022
  67   6.25000  -1.83233  61.76767    174.397       0.022
  68   6.87500  -1.88941  62.39527    175.160       0.021
  69   7.50000  -1.93837  63.02219    175.868       0.019
  70   8.12500  -1.97995  63.64857    176.508       0.017
  71   8.75000  -2.01489  64.27454    177.082       0.015
  72   9.37500  -2.04393  64.90022    177.583       0.013
  73  10.00000  -2.06796  65.52568    177.998       0.010
  74  10.62500  -2.08795  66.15100    178.324       0.008
  75  11.25000  -2.10484  66.77623    178.565       0.006
  76  11.87500  -2.11947  67.40140    178.750       0.005
  77  12.50000  -2.13224  68.02653    178.903       0.004
  78  13.12500  -2.14352  68.65163    179.024       0.003
  79  13.75000  -2.15366  69.27671    179.112       0.002
  80  14.37500  -2.16298  69.90178    179.179       0.002
  81  15.00000  -2.17160  70.52684    179.239       0.002
  82  15.61414  -2.17945  71.14103    179.295       0.002
  83  17.84473  -2.20401  73.37176    179.416       0.000
  84  20.07532  -2.22811  75.60248    179.290      -0.002
  85  22.30591  -2.25989  77.83330    179.116       0.000
  86  24.53650  -2.29544  80.06417    179.057       0.000
  87  26.76710  -2.33391  82.29509    178.954      -0.001
  88  28.99769  -2.37654  84.52608    178.879       0.000
  89  31.22828  -2.41883  86.75708    178.988       0.002
  90  33.45887  -2.45291  88.98793    179.286       0.003
  91  35.68946  -2.47623  91.21864    179.445       0.000
  92  37.92005  -2.49723  93.44933    179.519       0.002
  93  40.15064  -2.50704  95.67995    180.105       0.008
  94  42.38123  -2.47939  97.91071    181.434       0.013
  95  44.61183  -2.38821 100.14317    183.309       0.016
  96  46.84242  -2.21529 102.38045    185.649       0.020
  97  49.07301  -1.93149 104.62902    189.139       0.034
  98  51.30360  -1.48862 106.90315    193.211       0.029
  99  53.53419  -0.88616 109.21367    197.016       0.029

 Maximum curvature =         2.887   at  i,x,y,s  =  50   0.0007   0.0907  54.9045

.GDES   c>   
 Buffer airfoil is not identical to current airfoil

 XFOIL   c>  
 Blunt trailing edge.  Gap =  0.49428

 Paneling parameters used...
   Number of panel nodes       200
   Panel bunching parameter    1.000
   TE/LE panel density ratio   0.150
   Refined-area/LE panel density ratio    0.200
   Top    side refined area x/c limits  1.000 1.000
   Bottom side refined area x/c limits  1.000 1.000

 XFOIL   c>   Calculating unit vorticity distributions ...

 Current Q operating condition:
 alpha =    0.000 deg.      CL =  -1.9954


 Qspec initialized to current Q.


.QDES   c>  
 Q    :   CL =  -1.995416    CM = 199.708038
 Qspec:   CL =  -1.947619    CM = 199.398209

.QDES   c>  
 XFOIL   c>  
 Current TE gap  dx dy = 0.0000 0.4943    TE angle = 21.795 deg.

 Initializing mapping coordinate ...
           1      max(dw) =  3.0187756E-02
           2      max(dw) =  3.8715303E-03
           3      max(dw) =  9.1403723E-04
           4      max(dw) =  2.3779273E-04
           5      max(dw) =  7.5042248E-05
           6      max(dw) =  3.6656857E-05
           7      max(dw) =  1.6748905E-05
           8      max(dw) =  8.0466270E-06
           9      max(dw) =  3.8146973E-06
          10      max(dw) =  1.9073486E-06
          11      max(dw) =  9.5367432E-07
          12      max(dw) =  6.5565109E-07
          13      max(dw) =  5.3644180E-07
          14      max(dw) =  3.5762787E-07

 Current Q operating condition:   alpha =   0.000     CL =  -1.4865

 Qspec initialized to current Q

.MDES   c>  
 Current :  alpha =   0.0000    CL =  -1.486530    CM = 187.305206
 Qspec 1 :  alpha =  -0.0707    CL =  -1.947619    CM = 193.608826

.MDES   c>             1  8.7194458E-05
           2  4.1829347E-07
 Max thickness =     6.243252  at x =  16.007
 Max camber    =     1.034711  at x =  16.635
   6.396713      -15.65655      1.2453230E-02
  -2.000000       1.000000     -0.5000000      0.1833333    


 New buffer airfoil generated
 Execute PANE at Top Level to set new current airfoil


.MDES   c>  
 XFOIL   c>  
 Blunt trailing edge.  Gap =  0.49428

 Paneling parameters used...
   Number of panel nodes       200
   Panel bunching parameter    1.000
   TE/LE panel density ratio   0.150
   Refined-area/LE panel density ratio    0.200
   Top    side refined area x/c limits  1.000 1.000
   Bottom side refined area x/c limits  1.000 1.000

 XFOIL   c>  
 XFOIL   c>   
 You are working with the buffer airfoil

.GDES   c>  
  i       x        y      angle
   2  53.5210  -0.3908   -0.003
   3  53.4836  -0.3876   -0.002
   4  53.4245  -0.3827    0.005
   5  53.3447  -0.3760    0.012
   6  53.2447  -0.3676    0.007
   7  53.1252  -0.3577   -0.003
   8  52.9863  -0.3461    0.000
   9  52.8285  -0.3329    0.011
  10  52.6521  -0.3182    0.009
  11  52.4571  -0.3020   -0.001
  12  52.2440  -0.2843    0.001
  13  52.0128  -0.2650    0.012
  14  51.7639  -0.2444    0.012
  15  51.4974  -0.2224    0.001
  16  51.2135  -0.1989    0.001
  17  50.9123  -0.1740    0.010
  18  50.5942  -0.1477    0.007
  19  50.2590  -0.1201   -0.007
  20  49.9071  -0.0911   -0.010
  21  49.5385  -0.0606   -0.004
  22  49.1534  -0.0287   -0.018
  23  48.7517   0.0047   -0.055
  24  48.3335   0.0398   -0.095
  25  47.8987   0.0771   -0.132
  26  47.4476   0.1168   -0.184
  27  46.9803   0.1594   -0.253
  28  46.4970   0.2057   -0.317
  29  45.9983   0.2562   -0.377
  30  45.4848   0.3117   -0.451
  31  44.9572   0.3728   -0.525
  32  44.4168   0.4405   -0.555
  33  43.8653   0.5150   -0.531
  34  43.3042   0.5960   -0.491
  35  42.7349   0.6833   -0.451
  36  42.1585   0.7763   -0.390
  37  41.5764   0.8743   -0.300
  38  40.9896   0.9762   -0.209
  39  40.3987   1.0811   -0.131
  40  39.8041   1.1880   -0.049
  41  39.2063   1.2961    0.048
  42  38.6054   1.4041    0.129
  43  38.0012   1.5114    0.169
  44  37.3932   1.6175    0.181
  45  36.7813   1.7223    0.179
  46  36.1653   1.8258    0.161
  47  35.5453   1.9282    0.134
  48  34.9217   2.0297    0.127
  49  34.2950   2.1302    0.142
  50  33.6655   2.2297    0.150
  51  33.0335   2.3278    0.144
  52  32.3994   2.4246    0.146
  53  31.7636   2.5200    0.164
  54  31.1263   2.6138    0.168
  55  30.4878   2.7058    0.145
  56  29.8482   2.7964    0.125
  57  29.2082   2.8856    0.129
  58  28.5684   2.9732    0.135
  59  27.9292   3.0593    0.131
  60  27.2912   3.1437    0.138
  61  26.6551   3.2264    0.171
  62  26.0215   3.3068    0.203
  63  25.3906   3.3845    0.219
  64  24.7628   3.4595    0.240
  65  24.1386   3.5313    0.278
  66  23.5183   3.5997    0.308
  67  22.9021   3.6642    0.319
  68  22.2902   3.7249    0.344
  69  21.6832   3.7814    0.408
  70  21.0814   3.8331    0.477
  71  20.4847   3.8794    0.512
  72  19.8928   3.9199    0.523
  73  19.3054   3.9548    0.528
  74  18.7224   3.9841    0.512
  75  18.1434   4.0079    0.468
  76  17.5686   4.0269    0.430
  77  16.9983   4.0414    0.419
  78  16.4329   4.0517    0.406
  79  15.8725   4.0579    0.370
  80  15.3174   4.0605    0.340
  81  14.7684   4.0597    0.345
  82  14.2259   4.0558    0.360
  83  13.6906   4.0485    0.361
  84  13.1628   4.0379    0.372
  85  12.6432   4.0242    0.417
  86  12.1323   4.0070    0.468
  87  11.6304   3.9860    0.497
  88  11.1377   3.9611    0.528
  89  10.6546   3.9322    0.586
  90  10.1814   3.8990    0.644
  91   9.7181   3.8613    0.671
  92   9.2647   3.8190    0.690
  93   8.8214   3.7723    0.731
  94   8.3883   3.7211    0.781
  95   7.9658   3.6653    0.825
  96   7.5538   3.6048    0.882
  97   7.1527   3.5396    0.968
  98   6.7626   3.4694    1.076
  99   6.3835   3.3938    1.200
 100   6.0152   3.3123    1.300
 101   5.6567   3.2244    1.240
 102   5.3064   3.1304    0.909
 103   4.9629   3.0324    0.483
 104   4.6268   2.9334    0.360
 105   4.3011   2.8353    0.748
 106   3.9892   2.7369    1.426
 107   3.6923   2.6350    1.969
 108   3.4090   2.5267    2.092
 109   3.1362   2.4109    1.705
 110   2.8706   2.2887    0.905
 111   2.6095   2.1635    0.115
 112   2.3539   2.0403   -0.079
 113   2.1075   1.9220    0.488
 114   1.8747   1.8078    1.308
 115   1.6572   1.6949    1.784
 116   1.4543   1.5813    1.942
 117   1.2650   1.4667    2.137
 118   1.0889   1.3511    2.297
 119   0.9254   1.2340    2.100
 120   0.7730   1.1162    1.750
 121   0.6314   0.9996    1.837
 122   0.5017   0.8857    2.381
 123   0.3852   0.7745    2.775
 124   0.2819   0.6659    2.938
 125   0.1920   0.5610    3.781
 126   0.1172   0.4612    5.971
 127   0.0602   0.3657    8.776
 128   0.0224   0.2725   10.601
 129   0.0034   0.1790   10.637
 130   0.0020   0.0837    9.299
 131   0.0165  -0.0141    7.319
 132   0.0449  -0.1149    5.466
 133   0.0849  -0.2176    4.686
 134   0.1345  -0.3197    5.419
 135   0.1943  -0.4179    6.775
 136   0.2667  -0.5101    7.143
 137   0.3541  -0.5968    6.124
 138   0.4574  -0.6792    4.961
 139   0.5757  -0.7580    4.596
 140   0.7089  -0.8321    4.521
 141   0.8585  -0.9004    3.814
 142   1.0265  -0.9639    2.635
 143   1.2129  -1.0248    1.875
 144   1.4164  -1.0840    1.794
 145   1.6361  -1.1405    1.819
 146   1.8729  -1.1934    1.456
 147   2.1284  -1.2437    0.863
 148   2.4027  -1.2935    0.408
 149   2.6945  -1.3443    0.207
 150   3.0020  -1.3967    0.199
 151   3.3235  -1.4503    0.319
 152   3.6580  -1.5042    0.457
 153   4.0052  -1.5573    0.487
 154   4.3653  -1.6092    0.436
 155   4.7381  -1.6601    0.444
 156   5.1229  -1.7095    0.528
 157   5.5194  -1.7568    0.563
 158   5.9281  -1.8014    0.513
 159   6.3490  -1.8436    0.489
 160   6.7817  -1.8832    0.529
 161   7.2261  -1.9198    0.539
 162   7.6826  -1.9530    0.477
 163   8.1514  -1.9833    0.426
 164   8.6321  -2.0107    0.432
 165   9.1248  -2.0350    0.418
 166   9.6296  -2.0563    0.339
 167  10.1467  -2.0750    0.264
 168  10.6759  -2.0917    0.240
 169  11.2166  -2.1065    0.216
 170  11.7687  -2.1195    0.155
 171  12.3321  -2.1313    0.108
 172  12.9060  -2.1423    0.108
 173  13.4898  -2.1523    0.106
 174  14.0834  -2.1614    0.067
 175  14.6863  -2.1699    0.039
 176  15.2979  -2.1781    0.055
 177  15.9176  -2.1859    0.068
 178  16.5451  -2.1929    0.038
 179  17.1803  -2.1997    0.006
 180  17.8227  -2.2065    0.007
 181  18.4715  -2.2132    0.000
 182  19.1266  -2.2201   -0.044
 183  19.7877  -2.2275   -0.081
 184  20.4536  -2.2359   -0.068
 185  21.1235  -2.2451   -0.038
 186  21.7968  -2.2549   -0.034
 187  22.4730  -2.2651   -0.038
 188  23.1515  -2.2757   -0.019
 189  23.8318  -2.2867   -0.004
 190  24.5136  -2.2977   -0.020
 191  25.1966  -2.3089   -0.041
 192  25.8802  -2.3207   -0.035
 193  26.5636  -2.3329   -0.023
 194  27.2463  -2.3453   -0.030
 195  27.9279  -2.3581   -0.035
 196  28.6075  -2.3713   -0.010
 197  29.2846  -2.3845    0.021
 198  29.9585  -2.3975    0.031
 199  30.6292  -2.4100    0.036
 200  31.2959  -2.4220    0.063
 201  31.9583  -2.4332    0.093
 202  32.6162  -2.4433    0.095
 203  33.2695  -2.4522    0.082
 204  33.9179  -2.4601    0.074
 205  34.5612  -2.4671    0.057
 206  35.1991  -2.4735    0.020
 207  35.8312  -2.4795   -0.007
 208  36.4565  -2.4856    0.007
 209  37.0741  -2.4915    0.039
 210  37.6834  -2.4969    0.058
 211  38.2838  -2.5016    0.082
 212  38.8748  -2.5054    0.135
 213  39.4558  -2.5078    0.197
 214  40.0264  -2.5082    0.237
 215  40.5866  -2.5062    0.265
 216  41.1363  -2.5018    0.310
 217  41.6752  -2.4945    0.358
 218  42.2034  -2.4841    0.381
 219  42.7210  -2.4704    0.389
 220  43.2279  -2.4536    0.407
 221  43.7241  -2.4336    0.429
 222  44.2094  -2.4104    0.433
 223  44.6840  -2.3841    0.430
 224  45.1477  -2.3549    0.447
 225  45.6002  -2.3229    0.470
 226  46.0415  -2.2880    0.475
 227  46.4714  -2.2504    0.474
 228  46.8899  -2.2104    0.499
 229  47.2966  -2.1679    0.541
 230  47.6914  -2.1229    0.573
 231  48.0743  -2.0753    0.595
 232  48.4452  -2.0253    0.628
 233  48.8042  -1.9729    0.658
 234  49.1513  -1.9182    0.654
 235  49.4867  -1.8614    0.622
 236  49.8106  -1.8029    0.592
 237  50.1229  -1.7432    0.569
 238  50.4234  -1.6826    0.534
 239  50.7121  -1.6216    0.491
 240  50.9888  -1.5606    0.464
 241  51.2533  -1.5001    0.448
 242  51.5052  -1.4404    0.422
 243  51.7443  -1.3819    0.387
 244  51.9704  -1.3249    0.367
 245  52.1830  -1.2699    0.358
 246  52.3819  -1.2171    0.333
 247  52.5668  -1.1668    0.296
 248  52.7373  -1.1196    0.273
 249  52.8929  -1.0756    0.260
 250  53.0333  -1.0353    0.233
 251  53.1579  -0.9990    0.193
 252  53.2662  -0.9670    0.164
 253  53.3576  -0.9397    0.151
 254  53.4313  -0.9175    0.125
 255  53.4864  -0.9007    0.075
 256  53.5217  -0.8900    0.028

 Maximum panel corner angle = 10.637   at  i,x,y  = 129   0.0034   0.1790
 
 Enter corner angle criterion for refinement (deg):   5.318
 Enter type of spline parameter (1=uniform, 2=arclength):   1
 Enter refinement x limits:  -5.35127  58.88741
 Number of points added:           22
 Max thickness =     6.243252  at x =  16.007
 Max camber    =     1.034742  at x =  16.635

 Maximum panel corner angle =  4.596   at  i,x,y  = 161   0.5757  -0.7580

.GDES   c>  
 Current airfoil nodes set from buffer airfoil nodes ( 279 )

.GDES   c>  
  i        x         y         s       theta        curv
   1  53.53419  -0.39188   0.00000     -4.788      -0.003
   2  53.52104  -0.39078   0.01320     -4.790      -0.003
   3  53.48359  -0.38764   0.05078     -4.794      -0.001
   4  53.42447  -0.38268   0.11010     -4.793       0.001
   5  53.34465  -0.37599   0.19020     -4.783       0.003
   6  53.24474  -0.36764   0.29046     -4.772       0.001
   7  53.12518  -0.35767   0.41044     -4.771      -0.001
   8  52.98632  -0.34607   0.54978     -4.775       0.000
   9  52.82853  -0.33289   0.70812     -4.769       0.002
  10  52.65206  -0.31819   0.88520     -4.756       0.001
  11  52.45713  -0.30199   1.08081     -4.752       0.000
  12  52.24397  -0.28426   1.29470     -4.755       0.000
  13  52.01284  -0.26504   1.52663     -4.748       0.001
  14  51.76395  -0.24440   1.77638     -4.733       0.001
  15  51.49744  -0.22236   2.04380     -4.727       0.000
  16  51.21349  -0.19887   2.32871     -4.729       0.000
  17  50.91234  -0.17397   2.63089     -4.723       0.001
  18  50.59415  -0.14772   2.95016     -4.712       0.001
  19  50.25902  -0.12011   3.28643     -4.712      -0.001
  20  49.90708  -0.09106   3.63956     -4.723      -0.001
  21  49.53853  -0.06059   4.00937     -4.729       0.000
  22  49.15343  -0.02872   4.39578     -4.735      -0.001
  23  48.75175   0.00465   4.79886     -4.769      -0.002
  24  48.33347   0.03981   5.21861     -4.845      -0.004
  25  47.89872   0.07707   5.65496     -4.958      -0.005
  26  47.44762   0.11678   6.10779     -5.112      -0.007
  27  46.98029   0.15944   6.57707     -5.329      -0.009
  28  46.49702   0.20570   7.06255     -5.615      -0.011
  29  45.99832   0.25622   7.56380     -5.961      -0.013
  30  45.48478   0.31165   8.08033     -6.372      -0.015
  31  44.95718   0.37281   8.61146     -6.864      -0.017
  32  44.41680   0.44048   9.15606     -7.413      -0.018
  33  43.86529   0.51496   9.71258     -7.963      -0.017
  34  43.30421   0.59604  10.27948     -8.474      -0.015
  35  42.73487   0.68331  10.85547     -8.946      -0.014
  36  42.15852   0.77629  11.43927     -9.372      -0.012
  37  41.57644   0.87427  12.02954     -9.721      -0.009
  38  40.98963   0.97622  12.62514     -9.973      -0.006
  39  40.39869   1.08109  13.22531    -10.142      -0.004
  40  39.80411   1.18802  13.82944    -10.234      -0.002
  41  39.20631   1.29605  14.43692    -10.235       0.001
  42  38.60543   1.40412  15.04743    -10.142       0.004
  43  38.00119   1.51140  15.66112     -9.987       0.005
  44  37.39322   1.61749  16.27829     -9.809       0.005
  45  36.78129   1.72228  16.89912     -9.626       0.005
  46  36.16531   1.82578  17.52374     -9.454       0.005
  47  35.54534   1.92817  18.15211     -9.307       0.004
  48  34.92170   2.02966  18.78395     -9.181       0.003
  49  34.29496   2.13024  19.41871     -9.049       0.004
  50  33.66549   2.22965  20.05598     -8.900       0.004
  51  33.03354   2.32776  20.69551     -8.752       0.004
  52  32.39940   2.42458  21.33699     -8.610       0.004
  53  31.76355   2.52001  21.97996     -8.456       0.005
  54  31.12630   2.61379  22.62407     -8.285       0.005
  55  30.48776   2.70584  23.26921     -8.126       0.004
  56  29.84820   2.79638  23.91516     -7.994       0.003
  57  29.20821   2.88556  24.56133     -7.870       0.003
  58  28.56841   2.97325  25.20712     -7.737       0.004
  59  27.92924   3.05932  25.85205     -7.604       0.003
  60  27.29124   3.14375  26.49561     -7.473       0.004
  61  26.65513   3.22637  27.13707     -7.321       0.005
  62  26.02147   3.30675  27.77580     -7.132       0.006
  63  25.39058   3.38451  28.41147     -6.919       0.006
  64  24.76279   3.45945  29.04372     -6.693       0.007
  65  24.13857   3.53132  29.67205     -6.435       0.008
  66  23.51828   3.59968  30.29610     -6.138       0.009
  67  22.90207   3.66425  30.91569     -5.823       0.009
  68  22.29020   3.72491  31.53056     -5.498       0.010
  69  21.68320   3.78141  32.14018     -5.126       0.012
  70  21.08142   3.83311  32.74417     -4.680       0.014
  71  20.48473   3.87937  33.34266     -4.180       0.015
  72  19.89279   3.91994  33.93598     -3.661       0.015
  73  19.30540   3.95482  34.52441     -3.134       0.016
  74  18.72236   3.98406  35.10818     -2.609       0.016
  75  18.14344   4.00791  35.68759     -2.117       0.014
  76  17.56865   4.02688  36.26270     -1.671       0.013
  77  16.99833   4.04142  36.83320     -1.249       0.013
  78  16.43288   4.05170  37.39875     -0.833       0.013
  79  15.87248   4.05790  37.95919     -0.443       0.012
  80  15.31743   4.06046  38.51424     -0.092       0.011
  81  14.76836   4.05974  39.06330      0.246       0.011
  82  14.22594   4.05575  39.60574      0.600       0.012
  83  13.69062   4.04845  40.14112      0.962       0.012
  84  13.16282   4.03793  40.66901      1.324       0.012
  85  12.64319   4.02420  41.18882      1.713       0.014
  86  12.13230   4.00698  41.70001      2.158       0.016
  87  11.63042   3.98596  42.20233      2.643       0.017
  88  11.13775   3.96105  42.69563      3.152       0.019
  89  10.65465   3.93216  43.17960      3.706       0.021
  90  10.18143   3.89899  43.65398      4.325       0.024
  91   9.71813   3.86128  44.11881      4.987       0.026
  92   9.26471   3.81903  44.57419      5.666       0.027
  93   8.82137   3.77232  45.01999      6.373       0.029
  94   8.38834   3.72111  45.45603      7.129       0.032
  95   7.96579   3.66528  45.88226      7.932       0.034
  96   7.55383   3.60481  46.29863      8.781       0.037
  97   7.15271   3.53961  46.70501      9.702       0.042
  98   6.76260   3.46941  47.10139     10.722       0.048
  99   6.38351   3.39382  47.48793     11.858       0.055
 100   6.01518   3.31232  47.86518     13.122       0.062
 101   5.65669   3.22442  48.23429     14.432       0.062
 102   5.30640   3.13045  48.59696     15.545       0.045
 103   4.96290   3.03243  48.95418     16.224       0.021
 104   4.62678   2.93344  49.30457     16.567       0.013
 105   4.30108   2.83530  49.64474     17.045       0.036
 106   3.98916   2.73685  49.97182     18.123       0.079
 107   3.69226   2.63495  50.28572     19.873       0.116
 108   3.40897   2.52671  50.58899     21.984       0.127
 109   3.13623   2.41091  50.88529     23.964       0.106
 110   2.87055   2.28866  51.17775     25.310       0.055
 111   2.60953   2.16352  51.46722     25.766       0.000
 112   2.35385   2.04032  51.75103     25.651      -0.014
 113   2.10749   1.92202  52.02433     25.760       0.028
 114   1.87475   1.80781  52.28358     26.681       0.096
 115   1.65725   1.69485  52.52866     28.301       0.135
 116   1.45427   1.58128  52.76125     30.184       0.148
 117   1.26495   1.46675  52.98252     32.210       0.172
 118   1.08894   1.35110  53.19312     34.465       0.202
 119   0.92543   1.23401  53.39424     36.723       0.190
 120   0.77303   1.11620  53.58687     38.620       0.154
 121   0.63137   0.99962  53.77033     40.318       0.169
 122   0.50169   0.88572  53.94293     42.404       0.253
 123   0.38520   0.77450  54.10399     45.047       0.320
 124   0.28193   0.66588  54.25386     47.878       0.339
 125   0.19202   0.56102  54.39199     51.062       0.465
 126   0.14031   0.49390  54.47672     53.926       0.714
 127   0.11724   0.46118  54.51675     55.754       0.880
 128   0.09616   0.42897  54.55524     57.892       1.060
 129   0.07713   0.39719  54.59229     60.357       1.263
 130   0.06021   0.36575  54.62799     63.165       1.484
 131   0.04545   0.33454  54.66252     66.268       1.653
 132   0.03284   0.30347  54.69605     69.592       1.808
 133   0.02236   0.27245  54.72879     73.104       1.937
 134   0.01398   0.24141  54.76094     76.722       1.991
 135   0.00767   0.21025  54.79273     80.361       2.006
 136   0.00336   0.17896  54.82432     83.968       1.980
 137   0.00102   0.14746  54.85591     87.484       1.907
 138   0.00057   0.11572  54.88766     90.863       1.809
 139   0.00196   0.08371  54.91969     94.072       1.689
 140   0.00512   0.05141  54.95214     97.081       1.546
 141   0.01000   0.01879  54.98513     99.866       1.402
 142   0.01650  -0.01415  55.01870    102.424       1.259
 143   0.02455  -0.04742  55.05293    104.750       1.113
 144   0.03407  -0.08101  55.08785    106.844       0.981
 145   0.04495  -0.11488  55.12343    108.724       0.864
 146   0.05710  -0.14900  55.15965    110.440       0.790
 147   0.08488  -0.21762  55.23367    113.569       0.686
 148   0.11691  -0.28599  55.30917    116.698       0.761
 149   0.13452  -0.31974  55.34724    118.410       0.809
 150   0.15322  -0.35303  55.38543    120.270       0.891
 151   0.17312  -0.38579  55.42375    122.313       0.970
 152   0.19430  -0.41790  55.46222    124.535       1.045
 153   0.21688  -0.44933  55.50092    126.881       1.071
 154   0.24097  -0.48007  55.53998    129.290       1.082
 155   0.26667  -0.51014  55.57953    131.735       1.076
 156   0.29406  -0.53957  55.61973    134.128       1.002
 157   0.32320  -0.56843  55.66074    136.391       0.924
 158   0.35409  -0.59677  55.70267    138.512       0.843
 159   0.38677  -0.62467  55.74564    140.480       0.756
 160   0.45735  -0.67925  55.83486    143.966       0.608
 161   0.57572  -0.75805  55.97705    148.629       0.537
 162   0.70894  -0.83207  56.12946    153.223       0.515
 163   0.85855  -0.90037  56.29392    157.516       0.396
 164   1.02648  -0.96391  56.47348    160.758       0.234
 165   1.21294  -1.02481  56.66963    162.902       0.147
 166   1.41643  -1.08398  56.88154    164.658       0.142
 167   1.63608  -1.14046  57.10834    166.502       0.142
 168   1.87292  -1.19341  57.35102    168.208       0.104
 169   2.12841  -1.24374  57.61142    169.377       0.053
 170   2.40270  -1.29350  57.89019    169.974       0.022
 171   2.69449  -1.34429  58.18637    170.244       0.010
 172   3.00199  -1.39667  58.49830    170.420       0.010
 173   3.32353  -1.45030  58.82428    170.665       0.017
 174   3.65801  -1.50417  59.16307    171.061       0.024
 175   4.00522  -1.55726  59.51431    171.554       0.025
 176   4.36534  -1.60919  59.87815    172.017       0.020
 177   4.73811  -1.66006  60.25438    172.441       0.019
 178   5.12288  -1.70952  60.64232    172.924       0.024
 179   5.51943  -1.75679  61.04168    173.485       0.025
 180   5.92810  -1.80144  61.45277    174.030       0.021
 181   6.34898  -1.84361  61.87576    174.519       0.019
 182   6.78169  -1.88324  62.31028    175.024       0.021
 183   7.22609  -1.91980  62.75619    175.570       0.021
 184   7.68258  -1.95304  63.21388    176.085       0.018
 185   8.15135  -1.98326  63.68363    176.527       0.015
 186   8.63214  -2.01066  64.16520    176.952       0.016
 187   9.12477  -2.03501  64.65843    177.387       0.015
 188   9.62957  -2.05627  65.16369    177.773       0.012
 189  10.14674  -2.07498  65.68120    178.067       0.008
 190  10.67589  -2.09169  66.21061    178.313       0.008
 191  11.21658  -2.10649  66.75150    178.546       0.007
 192  11.76872  -2.11954  67.30379    178.735       0.005
 193  12.33208  -2.13132  67.86728    178.859       0.003
 194  12.90598  -2.14225  68.44129    178.962       0.003
 195  13.48982  -2.15227  69.02522    179.074       0.003
 196  14.08337  -2.16135  69.61883    179.164       0.002
 197  14.68632  -2.16988  70.22183    179.210       0.001
 198  15.29794  -2.17811  70.83351    179.252       0.002
 199  15.91759  -2.18585  71.45322    179.320       0.002
 200  16.54511  -2.19295  72.08078    179.377       0.001
 201  17.18033  -2.19972  72.71603    179.395       0.000
 202  17.82265  -2.20648  73.35840    179.399       0.000
 203  18.47151  -2.21325  74.00729    179.407       0.000
 204  19.12664  -2.22007  74.66246    179.389      -0.001
 205  19.78767  -2.22747  75.32353    179.320      -0.002
 206  20.45364  -2.23587  75.98956    179.238      -0.002
 207  21.12353  -2.24512  76.65951    179.187      -0.001
 208  21.79677  -2.25486  77.33281    179.155      -0.001
 209  22.47297  -2.26506  78.00909    179.116      -0.001
 210  23.15153  -2.27573  78.68774    179.085       0.000
 211  23.83184  -2.28667  79.36814    179.077       0.000
 212  24.51364  -2.29768  80.05003    179.069       0.000
 213  25.19664  -2.30894  80.73312    179.036      -0.001
 214  25.88020  -2.32071  81.41678    178.994      -0.001
 215  26.56357  -2.33289  82.10027    178.967       0.000
 216  27.24628  -2.34534  82.78309    178.942      -0.001
 217  27.92785  -2.35813  83.46478    178.906      -0.001
 218  28.60753  -2.37130  84.14458    178.879       0.000
 219  29.28456  -2.38454  84.82174    178.887       0.001
 220  29.95853  -2.39747  85.49584    178.916       0.001
 221  30.62915  -2.40998  86.16658    178.947       0.001
 222  31.29591  -2.42199  86.83344    178.993       0.002
 223  31.95830  -2.43320  87.49593    179.074       0.003
 224  32.61617  -2.44327  88.15387    179.172       0.003
 225  33.26945  -2.45219  88.80721    179.261       0.002
 226  33.91791  -2.46011  89.45572    179.339       0.002
 227  34.56123  -2.46713  90.09908    179.408       0.002
 228  35.19913  -2.47346  90.73701    179.448       0.001
 229  35.83117  -2.47950  91.36907    179.450       0.000
 230  36.45646  -2.48556  91.99439    179.444       0.000
 231  37.07407  -2.49147  92.61203    179.467       0.001
 232  37.68336  -2.49689  93.22135    179.517       0.002
 233  38.28384  -2.50162  93.82185    179.583       0.002
 234  38.87483  -2.50544  94.41285    179.687       0.004
 235  39.45575  -2.50782  94.99378    179.855       0.006
 236  40.02636  -2.50820  95.56439    180.076       0.007
 237  40.58661  -2.50625  96.12464    180.327       0.008
 238  41.13630  -2.50179  96.67435    180.611       0.010
 239  41.67523  -2.49451  97.21333    180.948       0.012
 240  42.20341  -2.48407  97.74162    181.321       0.013
 241  42.72099  -2.47040  98.25937    181.706       0.013
 242  43.22791  -2.45357  98.76657    182.102       0.014
 243  43.72406  -2.43357  99.26313    182.522       0.015
 244  44.20943  -2.41035  99.74905    182.956       0.016
 245  44.68403  -2.38406 100.22437    183.386       0.016
 246  45.14769  -2.35488 100.68895    183.821       0.017
 247  45.60020  -2.32286 101.14259    184.281       0.018
 248  46.04145  -2.28800 101.58522    184.757       0.019
 249  46.47143  -2.25044 102.01684    185.229       0.019
 250  46.88992  -2.21039 102.43724    185.711       0.021
 251  47.29663  -2.16789 102.84617    186.231       0.024
 252  47.69143  -2.12286 103.24352    186.791       0.026
 253  48.07431  -2.07531 103.62935    187.374       0.027
 254  48.44523  -2.02532 104.00362    187.985       0.030
 255  48.80418  -1.97294 104.36637    188.631       0.032
 256  49.15127  -1.91821 104.71775    189.293       0.033
 257  49.48672  -1.86138 105.05798    189.933       0.032
 258  49.81060  -1.80289 105.38710    190.538       0.032
 259  50.12285  -1.74317 105.70501    191.119       0.032
 260  50.42338  -1.68259 106.01158    191.673       0.031
 261  50.71210  -1.62158 106.30668    192.184       0.029
 262  50.98883  -1.56063 106.59003    192.658       0.029
 263  51.25327  -1.50014 106.86131    193.114       0.030
 264  51.50516  -1.44043 107.12018    193.552       0.029
 265  51.74429  -1.38189 107.36637    193.956       0.028
 266  51.97036  -1.32493 107.59951    194.330       0.028
 267  52.18302  -1.26989 107.81918    194.693       0.030
 268  52.38194  -1.21708 108.02499    195.042       0.030
 269  52.56682  -1.16685 108.21657    195.356       0.028
 270  52.73730  -1.11958 108.39347    195.637       0.028
 271  52.89293  -1.07563 108.55518    195.904       0.030
 272  53.03326  -1.03531 108.70120    196.155       0.030
 273  53.15786  -0.99897 108.83099    196.368       0.027
 274  53.26618  -0.96697 108.94394    196.542       0.027
 275  53.35757  -0.93970 109.03931    196.699       0.031
 276  53.43129  -0.91748 109.11630    196.841       0.034
 277  53.48643  -0.90074 109.17393    196.943       0.028
 278  53.52171  -0.88997 109.21082    196.991       0.017
 279  53.53419  -0.88616 109.22387    197.004       0.017

 Maximum curvature =         2.006   at  i,x,y,s  = 135   0.0077   0.2103  54.7927

.GDES   c>  
 XFOIL   c>   
 Area =   238.1758    
 Slen =   109.7181    
 
 X-bending parameters:
   centroid   Xc  =   23.35749    
        max X-Xc  =   30.17670    
        min X-Xc  =  -23.35693    
      solid Iyy   =   40501.75    
      skin  Iyy/t =   28285.18    
  solid Iyy/(X-Xc)=   1342.153    
  skin Iyy/t(X-Xc)=   937.3184    
 
 Y-bending parameters:
   centroid   Yc  =  0.3396757    
        max Y-Yc  =   3.720788    
        min Y-Yc  =  -2.847873    
      solid Ixx   =   633.7812    
      skin  Ixx/t =   665.5508    
  solid Ixx/(Y-Yc)=   170.3352    
  skin Ixx/t(Y-Yc)=   178.8736    
 
     solid J     =   2144.894    
     skin  J/t   =   2068.124    

 XFOIL   c>   Loaded airfoil will  be normalized

 XFOIL   c>  
 XFOIL   c>  
 XFOIL   c>  
 XFOIL   c>  
 Blunt trailing edge.  Gap =  0.49428

 Paneling parameters used...
   Number of panel nodes       200
   Panel bunching parameter    1.000
   TE/LE panel density ratio   0.150
   Refined-area/LE panel density ratio    0.200
   Top    side refined area x/c limits  1.000 1.000
   Bottom side refined area x/c limits  1.000 1.000

 XFOIL   c>  
.OPERi   c>   
 M  =    0.0000
 Re =    100000

.OPERv   c>  
 Sonic Cp = -18718.45      Sonic Q/Qinf =   152.146


.OPERv   c>  
.OPERv   c>  
 Xtr/c     =  1.0000    top    side
 Xtr/c     =  1.0000    bottom side
 Ncrit     =    9.00   ( 0.070 % turb. level )
 Vacc      =  0.0100

 Klag  =  5.6000     Uxwt  =    1.00
 A     =  6.7000     B     =  0.7500       KCt = 0.01485
 CtiniK=  1.8000     CtiniX=  3.3000

..VPAR   c>  
..VPAR   c>  
Enter top    side Xtrip/c   r>  
Enter bottom side Xtrip/c   r>  
..VPAR   c>  
.OPERv   c>   Calculating unit vorticity distributions ...
 Calculating wake trajectory ...
 Calculating source influence matrix ...
 
 Solving BL system ...
 
 Initializing BL ...
    side            1  ...
    side            2  ...
 MRCHUE: Inverse mode at  20     Hk =   5.910
 MRCHUE: Inverse mode at  21     Hk =   9.002
 MRCHUE: Inverse mode at  22     Hk =   7.228
 MRCHUE: Inverse mode at  23     Hk =   2.500
 MRCHUE: Inverse mode at 104     Hk =   2.500
 MRCHUE: Inverse mode at 105     Hk =   2.500
 MRCHUE: Inverse mode at 107     Hk =   2.108
 
 Side 1 forced transition at x/c =  0.0500   17
 Side 2  free  transition at x/c =  0.0254   22

   1   rms: 0.1603E+00   max: -.8778E+00   D at   97  1   RLX: 0.120
       a = -2.000      CL =-14.3767
      Cm =366.6265     CD =  0.35326   =>   CDf =  0.36111    CDp = -0.00785
 
 Side 1 forced transition at x/c =  0.0500   17
 Side 2  free  transition at x/c =  0.0257   22

   2   rms: 0.1384E+00   max: -.7766E+00   D at   97  1   RLX: 0.153
       a = -2.000      CL =-13.8800
      Cm =353.5641     CD =  0.36807   =>   CDf =  0.36194    CDp =  0.00613
 
 Side 1 forced transition at x/c =  0.0500   17
 Side 2  free  transition at x/c =  0.0259   22

   3   rms: 0.1167E+00   max: -.6956E+00   T at   22  2   RLX: 0.202
       a = -2.000      CL =-13.3828
      Cm =340.3996     CD =  0.38598   =>   CDf =  0.36274    CDp =  0.02325
 
 Side 1 forced transition at x/c =  0.0500   17
 Side 2  free  transition at x/c =  0.0266   23

   4   rms: 0.1557E+00   max: -.1171E+01   T at   23  2   RLX: 0.293
       a = -2.000      CL =-12.8719
      Cm =327.1933     CD =  0.40225   =>   CDf =  0.36458    CDp =  0.03767
 
 Side 1 forced transition at x/c =  0.0500   17
 Side 2  free  transition at x/c =  0.0331   24

   5   rms: 0.8687E-01   max: 0.1266E+01   D at   24  2   RLX: 0.463
       a = -2.000      CL =-12.4109
      Cm =313.6736     CD =  0.42748   =>   CDf =  0.36477    CDp =  0.06272
 
 Side 1 forced transition at x/c =  0.0500   17
 Side 2  free  transition at x/c =  0.0375   25

   6   rms: 0.3821E-01   max: 0.3354E+00   D at   25  2   RLX: 0.826
       a = -2.000      CL =-11.9110
      Cm =300.8309     CD =  0.45585   =>   CDf =  0.36399    CDp =  0.09186
 
 Side 1 forced transition at x/c =  0.0500   17
 Side 2  free  transition at x/c =  0.0412   25

   7   rms: 0.6870E-02   max: -.5242E-01   D at   25  2
       a = -2.000      CL =-11.7944
      Cm =297.8070     CD =  0.46366   =>   CDf =  0.36328    CDp =  0.10037
 
 Side 1 forced transition at x/c =  0.0500   17
 Side 2  free  transition at x/c =  0.0404   25

   8   rms: 0.1810E-03   max: -.4605E-02   D at   25  2
       a = -2.000      CL =-11.7939
      Cm =297.7955     CD =  0.46375   =>   CDf =  0.36342    CDp =  0.10032
 
 Side 1 forced transition at x/c =  0.0500   17
 Side 2  free  transition at x/c =  0.0404   25

   9   rms: 0.9076E-06   max: 0.5794E-05   C at  132  2
       a = -2.000      CL =-11.7939
      Cm =297.7956     CD =  0.46375   =>   CDf =  0.36343    CDp =  0.10032

.OPERv   c>   BLs will be initialized on next point

.OPERv   c>   Calculating wake trajectory ...
 Calculating source influence matrix ...
 
 Solving BL system ...
 
 Initializing BL ...
    side            1  ...
    side            2  ...
 MRCHUE: Inverse mode at 101     Hk =   2.500
 MRCHUE: Inverse mode at 102     Hk =   2.500
 MRCHUE: Inverse mode at 104     Hk =   2.127
 
 Side 1 forced transition at x/c =  0.0500   20
 Side 2 forced transition at x/c =  0.1000   28

   1   rms: 0.1416E+00   max: -.9143E+00   D at  100  1   RLX: 0.108
       a =  0.000      CL = -1.4530
      Cm =186.3482     CD =  0.34853   =>   CDf =  0.35368    CDp = -0.00515
 
 Side 1 forced transition at x/c =  0.0500   20
 Side 2 forced transition at x/c =  0.1000   28

   2   rms: 0.1227E+00   max: -.8277E+00   D at  100  1   RLX: 0.140
       a =  0.000      CL = -0.9564
      Cm =173.2149     CD =  0.35984   =>   CDf =  0.35432    CDp =  0.00552
 
 Side 1 forced transition at x/c =  0.0500   20
 Side 2 forced transition at x/c =  0.1000   28

   3   rms: 0.1033E+00   max: -.7224E+00   D at  100  1   RLX: 0.198
       a =  0.000      CL = -0.4592
      Cm =159.9414     CD =  0.37453   =>   CDf =  0.35388    CDp =  0.02066
 
 Side 1 forced transition at x/c =  0.0500   21
 Side 2 forced transition at x/c =  0.1000   27

   4   rms: 0.8319E-01   max: -.5878E+00   D at  101  1   RLX: 0.326
       a =  0.000      CL =  0.0389
      Cm =146.4324     CD =  0.39558   =>   CDf =  0.35583    CDp =  0.03975
 
 Side 1 forced transition at x/c =  0.0500   21
 Side 2 forced transition at x/c =  0.1000   27

   5   rms: 0.5612E-01   max: -.4014E+00   D at  101  1   RLX: 0.781
       a =  0.000      CL =  0.5385
      Cm =132.3580     CD =  0.43370   =>   CDf =  0.35676    CDp =  0.07694
 
 Side 1 forced transition at x/c =  0.0500   21
 Side 2 forced transition at x/c =  0.1000   27

   6   rms: 0.1323E-01   max: -.9743E-01   D at  101  1
       a =  0.000      CL =  0.4585
      Cm =134.0216     CD =  0.44966   =>   CDf =  0.35796    CDp =  0.09171
 
 Side 1 forced transition at x/c =  0.0500   21
 Side 2 forced transition at x/c =  0.1000   27

   7   rms: 0.4442E-03   max: -.4399E-02   D at  100  2
       a =  0.000      CL =  0.4491
      Cm =134.2605     CD =  0.45016   =>   CDf =  0.35788    CDp =  0.09228
 
 Side 1 forced transition at x/c =  0.0500   21
 Side 2 forced transition at x/c =  0.1000   27

   8   rms: 0.1245E-05   max: -.1615E-04   D at  100  2
       a =  0.000      CL =  0.4490
      Cm =134.2617     CD =  0.45017   =>   CDf =  0.35785    CDp =  0.09231

.OPERv   c>  
 Polar  1 newly created for accumulation
 Airfoil archived with polar: AIRFOIL_GEO                                     

Enter  polar save filename  OR  <return> for no file   s>   
 New polar save file available

Enter  polar dump filename  OR  <return> for no file   s>   
 Polar dump file will NOT be written
 
 Polar accumulation enabled

.OPERva   c>   Calculating wake trajectory ...
 Calculating source influence matrix ...
 
 Solving BL system ...
 
 Side 1 forced transition at x/c =  0.0500   21
 Side 2 forced transition at x/c =  0.1000   27
 idif Ue xi dudx           1  0.2149715      0.1091919       1.968750    
 Uenew xinew           2  7.0085041E-02  3.5598755E-02

   1   rms: 0.3186E+00   max: 0.1020E+01   n at   26  2   RLX: 0.170
       a = -2.000      CL = -1.6515
      Cm =162.6909     CD =  0.44864   =>   CDf =  0.35828    CDp =  0.09037
 
 Side 1 forced transition at x/c =  0.0500   20
 Side 2 forced transition at x/c =  0.1000   28

   2   rms: 0.2683E+00   max: 0.1031E+01   n at   27  2   RLX: 0.049
       a = -2.000      CL = -2.1548
      Cm =169.4519     CD =  0.44847   =>   CDf =  0.35670    CDp =  0.09176
 
 Side 1 forced transition at x/c =  0.0500   20
 Side 2 forced transition at x/c =  0.1000   28

   3   rms: 0.2568E+00   max: 0.1038E+01   n at   27  2   RLX: 0.051
       a = -2.000      CL = -2.6549
      Cm =176.2025     CD =  0.44819   =>   CDf =  0.35646    CDp =  0.09173
 
 Side 1 forced transition at x/c =  0.0500   20
 Side 2 forced transition at x/c =  0.1000   28

   4   rms: 0.2457E+00   max: 0.1074E+01   n at   27  2   RLX: 0.054
       a = -2.000      CL = -3.1551
      Cm =182.9511     CD =  0.44793   =>   CDf =  0.35621    CDp =  0.09171
 
 Side 1 forced transition at x/c =  0.0500   20
 Side 2 forced transition at x/c =  0.1000   28
 idif Ue xi dudx           1  0.1534680      7.8392029E-02   1.957698    
 Uenew xinew           2  2.6511496E-03  1.3542175E-03

   5   rms: 0.2349E+00   max: 0.1124E+01   n at   27  2   RLX: 0.057
       a = -2.000      CL = -3.6553
      Cm =189.6978     CD =  0.44768   =>   CDf =  0.35638    CDp =  0.09130
 
 Side 1 forced transition at x/c =  0.0500   19
 Side 2 forced transition at x/c =  0.1000   29

   6   rms: 0.4943E+00   max: 0.8394E+01   T at    2  2   RLX: 0.060
       a = -2.000      CL = -4.1557
      Cm =196.4446     CD =  0.44745   =>   CDf =  0.35564    CDp =  0.09181
 
 Side 1 forced transition at x/c =  0.0500   19
 Side 2  free  transition at x/c =  0.0810   28

   7   rms: 0.8201E+00   max: -.1189E+02   D at   28  2   RLX: 0.042
       a = -2.000      CL = -4.4468
      Cm =200.0915     CD =  0.45531   =>   CDf =  0.35854    CDp =  0.09677
 
 Side 1 forced transition at x/c =  0.0500   19
 Side 2  free  transition at x/c =  0.0685   26

   8   rms: 0.9081E+00   max: 0.2620E+02   C at   26  2   RLX: 0.057
       a = -2.000      CL = -4.8618
      Cm =205.5932     CD =  0.45517   =>   CDf =  0.36044    CDp =  0.09473
 
 Side 1 forced transition at x/c =  0.0500   19
 Side 2  free  transition at x/c =  0.0633   26

   9   rms: 0.3230E+00   max: -.3925E+01   D at   26  2   RLX: 0.073
       a = -2.000      CL = -5.3585
      Cm =212.1450     CD =  0.45717   =>   CDf =  0.36126    CDp =  0.09592
 
 Side 1 forced transition at x/c =  0.0500   19
 Side 2  free  transition at x/c =  0.0584   25

  10   rms: 0.2152E+00   max: 0.3529E+01   C at   25  2   RLX: 0.078
       a = -2.000      CL = -5.8580
      Cm =218.8192     CD =  0.45683   =>   CDf =  0.36186    CDp =  0.09497
 
 Side 1 forced transition at x/c =  0.0500   19
 Side 2  free  transition at x/c =  0.0564   25

  11   rms: 0.1987E+00   max: 0.2446E+01   C at   25  2   RLX: 0.084
       a = -2.000      CL = -6.3566
      Cm =225.4620     CD =  0.45772   =>   CDf =  0.36211    CDp =  0.09562
 
 Side 1 forced transition at x/c =  0.0500   19
 Side 2  free  transition at x/c =  0.0542   25

  12   rms: 0.1796E+00   max: -.1905E+01   D at   25  2   RLX: 0.092
       a = -2.000      CL = -6.8564
      Cm =232.0855     CD =  0.45883   =>   CDf =  0.36253    CDp =  0.09630
 
 Side 1 forced transition at x/c =  0.0500   19
 Side 2  free  transition at x/c =  0.0516   25
 idif Ue xi dudx           1  0.1559806      8.4415436E-02   1.847774    
 Uenew xinew           2  5.8433712E-03  3.1623840E-03

  13   rms: 0.1477E+00   max: 0.7882E+00   n at   24  2   RLX: 0.101
       a = -2.000      CL = -7.3576
      Cm =238.7308     CD =  0.45935   =>   CDf =  0.36236    CDp =  0.09699
 
 Side 1 forced transition at x/c =  0.0500   18
 Side 2  free  transition at x/c =  0.0497   25

  14   rms: 0.2419E+00   max: 0.3903E+01   T at    2  2   RLX: 0.112
       a = -2.000      CL = -7.8511
      Cm =245.4093     CD =  0.45927   =>   CDf =  0.36289    CDp =  0.09637
 
 Side 1 forced transition at x/c =  0.0500   18
 Side 2  free  transition at x/c =  0.0492   25

  15   rms: 0.1064E+00   max: -.6712E+00   D at   25  2   RLX: 0.126
       a = -2.000      CL = -8.3521
      Cm =252.0885     CD =  0.45957   =>   CDf =  0.36277    CDp =  0.09680
 
 Side 1 forced transition at x/c =  0.0500   18
 Side 2  free  transition at x/c =  0.0485   25

  16   rms: 0.9434E-01   max: -.7102E+00   D at   25  2   RLX: 0.145
       a = -2.000      CL = -8.8521
      Cm =258.7523     CD =  0.46005   =>   CDf =  0.36274    CDp =  0.09730
 
 Side 1 forced transition at x/c =  0.0500   18
 Side 2  free  transition at x/c =  0.0474   25

  17   rms: 0.8516E-01   max: -.7923E+00   D at   25  2   RLX: 0.170
       a = -2.000      CL = -9.3519
      Cm =265.3935     CD =  0.46081   =>   CDf =  0.36285    CDp =  0.09796
 
 Side 1 forced transition at x/c =  0.0500   18
 Side 2  free  transition at x/c =  0.0461   25

  18   rms: 0.7469E-01   max: -.8034E+00   D at   25  2   RLX: 0.205
       a = -2.000      CL = -9.8521
      Cm =272.0160     CD =  0.46177   =>   CDf =  0.36310    CDp =  0.09868
 
 Side 1 forced transition at x/c =  0.0500   18
 Side 2  free  transition at x/c =  0.0445   25

  19   rms: 0.5809E-01   max: -.4295E+00   D at   25  2   RLX: 0.258
       a = -2.000      CL =-10.3534
      Cm =278.6319     CD =  0.46267   =>   CDf =  0.36338    CDp =  0.09929
 
 Side 1 forced transition at x/c =  0.0500   18
 Side 2  free  transition at x/c =  0.0427   25
 idif Ue xi dudx           1  0.1394762      8.8680267E-02   1.572798    
 Uenew xinew           2  3.7558430E-03  2.3880005E-03

  20   rms: 0.4321E-01   max: 0.2836E+00   n at   24  2   RLX: 0.349
       a = -2.000      CL =-10.8545
      Cm =285.2455     CD =  0.46353   =>   CDf =  0.36228    CDp =  0.10125
 
 Side 1 forced transition at x/c =  0.0500   17
 Side 2  free  transition at x/c =  0.0415   25

  21   rms: 0.7561E-01   max: 0.1312E+01   T at    2  2   RLX: 0.529
       a = -2.000      CL =-11.3403
      Cm =291.9294     CD =  0.46330   =>   CDf =  0.36332    CDp =  0.09998
 
 Side 1 forced transition at x/c =  0.0500   17
 Side 2  free  transition at x/c =  0.0412   25

  22   rms: 0.1420E-01   max: -.1881E+00   D at   25  2
       a = -2.000      CL =-11.7959
      Cm =297.8455     CD =  0.46355   =>   CDf =  0.36325    CDp =  0.10030
 
 Side 1 forced transition at x/c =  0.0500   17
 Side 2  free  transition at x/c =  0.0405   25

  23   rms: 0.6897E-03   max: -.1436E-01   D at   25  2
       a = -2.000      CL =-11.7939
      Cm =297.7961     CD =  0.46375   =>   CDf =  0.36339    CDp =  0.10036
 
 Side 1 forced transition at x/c =  0.0500   17
 Side 2  free  transition at x/c =  0.0404   25

  24   rms: 0.4350E-05   max: -.1112E-03   D at   25  2
       a = -2.000      CL =-11.7939
      Cm =297.7956     CD =  0.46375   =>   CDf =  0.36343    CDp =  0.10032

 Point added to stored polar  1
 Point written to save file  AIRFOIL_POLARS.dat                              
 Dump file unspecified or not available
 Calculating wake trajectory ...
 Calculating source influence matrix ...
 
 Solving BL system ...
 
 Side 1 forced transition at x/c =  0.0500   17
 Side 2  free  transition at x/c =  0.0404   25

   1   rms: 0.4607E-01   max: 0.5015E+00   D at   25  2   RLX: 0.166
       a = -1.750      CL =-11.5396
      Cm =294.4028     CD =  0.46335   =>   CDf =  0.36344    CDp =  0.09991
 
 Side 1 forced transition at x/c =  0.0500   17
 Side 2  free  transition at x/c =  0.0410   25

   2   rms: 0.3637E-01   max: 0.3327E+00   D at   25  2   RLX: 0.391
       a = -1.750      CL =-11.0395
      Cm =287.7227     CD =  0.46283   =>   CDf =  0.36334    CDp =  0.09949
 
 Side 1 forced transition at x/c =  0.0500   17
 Side 2  free  transition at x/c =  0.0419   25

   3   rms: 0.2166E-01   max: 0.1498E+00   C at   25  2   RLX: 0.639
       a = -1.750      CL =-10.5396
      Cm =281.0237     CD =  0.46267   =>   CDf =  0.36387    CDp =  0.09880
 
 Side 1 forced transition at x/c =  0.0500   18
 Side 2  free  transition at x/c =  0.0423   24

   4   rms: 0.1487E-01   max: -.2229E+00   D at    2  1
       a = -1.750      CL =-10.2562
      Cm =277.2252     CD =  0.46266   =>   CDf =  0.36356    CDp =  0.09910
 
 Side 1 forced transition at x/c =  0.0500   18
 Side 2  free  transition at x/c =  0.0434   25

   5   rms: 0.6777E-02   max: 0.1504E+00   D at   24  2
       a = -1.750      CL =-10.2565
      Cm =277.2370     CD =  0.46269   =>   CDf =  0.36346    CDp =  0.09922
 
 Side 1 forced transition at x/c =  0.0500   18
 Side 2  free  transition at x/c =  0.0426   25

   6   rms: 0.1578E-02   max: 0.2960E-01   D at   24  2
       a = -1.750      CL =-10.2563
      Cm =277.2274     CD =  0.46272   =>   CDf =  0.36363    CDp =  0.09909
 
 Side 1 forced transition at x/c =  0.0500   18
 Side 2  free  transition at x/c =  0.0424   24

   7   rms: 0.6779E-03   max: -.1179E-01   D at   24  2
       a = -1.750      CL =-10.2565
      Cm =277.2343     CD =  0.46267   =>   CDf =  0.36367    CDp =  0.09901
 
 Side 1 forced transition at x/c =  0.0500   18
 Side 2  free  transition at x/c =  0.0424   24

   8   rms: 0.1506E-05   max: -.3344E-04   C at   24  2
       a = -1.750      CL =-10.2565
      Cm =277.2344     CD =  0.46267   =>   CDf =  0.36367    CDp =  0.09901

 Point added to stored polar  1
 Point written to save file  AIRFOIL_POLARS.dat                              
 Dump file unspecified or not available
 Calculating wake trajectory ...
 Calculating source influence matrix ...
 
 Solving BL system ...
 
 Side 1 forced transition at x/c =  0.0500   18
 Side 2  free  transition at x/c =  0.0424   24

   1   rms: 0.4395E-01   max: 0.4921E+00   C at   24  2   RLX: 0.170
       a = -1.500      CL = -9.9941
      Cm =273.7083     CD =  0.46260   =>   CDf =  0.36368    CDp =  0.09893
 
 Side 1 forced transition at x/c =  0.0500   18
 Side 2  free  transition at x/c =  0.0442   25

   2   rms: 0.3763E-01   max: 0.2598E+00   D at   25  2   RLX: 0.396
       a = -1.500      CL = -9.4920
      Cm =267.0770     CD =  0.46091   =>   CDf =  0.36341    CDp =  0.09750
 
 Side 1 forced transition at x/c =  0.0500   18
 Side 2  free  transition at x/c =  0.0465   25

   3   rms: 0.2106E-01   max: 0.1124E+00   D at   25  2   RLX: 0.655
       a = -1.500      CL = -8.9936
      Cm =260.4236     CD =  0.46028   =>   CDf =  0.36300    CDp =  0.09728
 
 Side 1 forced transition at x/c =  0.0500   18
 Side 2  free  transition at x/c =  0.0474   25

   4   rms: 0.6950E-02   max: 0.2836E-01   D at   24  2
       a = -1.500      CL = -8.7286
      Cm =256.9095     CD =  0.46019   =>   CDf =  0.36296    CDp =  0.09723
 
 Side 1 forced transition at x/c =  0.0500   18
 Side 2  free  transition at x/c =  0.0476   25

   5   rms: 0.1237E-03   max: -.2693E-02   D at   25  2
       a = -1.500      CL = -8.7289
      Cm =256.9176     CD =  0.46021   =>   CDf =  0.36301    CDp =  0.09720
 
 Side 1 forced transition at x/c =  0.0500   18
 Side 2  free  transition at x/c =  0.0475   25

   6   rms: 0.5233E-06   max: 0.2320E-05   C at   31  2
       a = -1.500      CL = -8.7289
      Cm =256.9174     CD =  0.46021   =>   CDf =  0.36302    CDp =  0.09719

 Point added to stored polar  1
 Point written to save file  AIRFOIL_POLARS.dat                              
 Dump file unspecified or not available
 Calculating wake trajectory ...
 Calculating source influence matrix ...
 
 Solving BL system ...
 
 Side 1 forced transition at x/c =  0.0500   18
 Side 2  free  transition at x/c =  0.0475   25

   1   rms: 0.4432E-01   max: 0.3851E+00   D at   25  2   RLX: 0.176
       a = -1.250      CL = -8.4588
      Cm =253.3073     CD =  0.45986   =>   CDf =  0.36303    CDp =  0.09683
 
 Side 1 forced transition at x/c =  0.0500   18
 Side 2  free  transition at x/c =  0.0482   25

   2   rms: 0.3529E-01   max: 0.2704E+00   D at   25  2   RLX: 0.395
       a = -1.250      CL = -7.9587
      Cm =246.6172     CD =  0.45942   =>   CDf =  0.36296    CDp =  0.09646
 
 Side 1 forced transition at x/c =  0.0500   18
 Side 2  free  transition at x/c =  0.0491   25

   3   rms: 0.2057E-01   max: 0.1230E+00   D at   25  2   RLX: 0.652
       a = -1.250      CL = -7.4585
      Cm =239.9153     CD =  0.45921   =>   CDf =  0.36293    CDp =  0.09628
 
 Side 1 forced transition at x/c =  0.0500   18
 Side 2  free  transition at x/c =  0.0497   25

   4   rms: 0.7195E-02   max: 0.4380E-01   C at   25  2
       a = -1.250      CL = -7.1921
      Cm =236.3414     CD =  0.45920   =>   CDf =  0.36297    CDp =  0.09623
 
 Side 1 forced transition at x/c =  0.0500   19
 Side 2  free  transition at x/c =  0.0499   24

   5   rms: 0.1825E-02   max: -.3422E-01   T at    2  1
       a = -1.250      CL = -7.1924
      Cm =236.3487     CD =  0.45922   =>   CDf =  0.36316    CDp =  0.09606
 
 Side 1 forced transition at x/c =  0.0500   19
 Side 2  free  transition at x/c =  0.0499   24

   6   rms: 0.1709E-03   max: 0.2124E-02   D at    4  1
       a = -1.250      CL = -7.1924
      Cm =236.3482     CD =  0.45922   =>   CDf =  0.36316    CDp =  0.09606
 
 Side 1 forced transition at x/c =  0.0500   19
 Side 2  free  transition at x/c =  0.0499   24

   7   rms: 0.2054E-05   max: -.2513E-04   D at    4  1
       a = -1.250      CL = -7.1924
      Cm =236.3481     CD =  0.45922   =>   CDf =  0.36316    CDp =  0.09606

 Point added to stored polar  1
 Point written to save file  AIRFOIL_POLARS.dat                              
 Dump file unspecified or not available
 Calculating wake trajectory ...
 Calculating source influence matrix ...
 
 Solving BL system ...
 
 Side 1 forced transition at x/c =  0.0500   19
 Side 2  free  transition at x/c =  0.0499   24

   1   rms: 0.4433E-01   max: 0.3902E+00   C at   24  2   RLX: 0.181
       a = -1.000      CL = -6.9132
      Cm =232.5897     CD =  0.45916   =>   CDf =  0.36317    CDp =  0.09599
 
 Side 1 forced transition at x/c =  0.0500   19
 Side 2  free  transition at x/c =  0.0502   25

   2   rms: 0.3683E-01   max: -.2275E+00   n at   24  2   RLX: 0.398
       a = -1.000      CL = -6.4125
      Cm =225.9132     CD =  0.45847   =>   CDf =  0.36324    CDp =  0.09523
 
 Side 1 forced transition at x/c =  0.0500   19
 Side 2  free  transition at x/c =  0.0538   25

   3   rms: 0.2347E-01   max: 0.2062E+00   D at   25  2   RLX: 0.668
       a = -1.000      CL = -5.9134
      Cm =219.2699     CD =  0.45733   =>   CDf =  0.36282    CDp =  0.09451
 
 Side 1 forced transition at x/c =  0.0500   19
 Side 2  free  transition at x/c =  0.0561   25

   4   rms: 0.7363E-02   max: -.6315E-01   C at   25  2
       a = -1.000      CL = -5.6636
      Cm =215.9601     CD =  0.45705   =>   CDf =  0.36239    CDp =  0.09467
 
 Side 1 forced transition at x/c =  0.0500   19
 Side 2  free  transition at x/c =  0.0567   25

   5   rms: 0.7261E-04   max: -.1882E-02   C at   25  2
       a = -1.000      CL = -5.6638
      Cm =215.9660     CD =  0.45708   =>   CDf =  0.36231    CDp =  0.09477

 Point added to stored polar  1
 Point written to save file  AIRFOIL_POLARS.dat                              
 Dump file unspecified or not available
 Calculating wake trajectory ...
 Calculating source influence matrix ...
 
 Solving BL system ...
 
 Side 1 forced transition at x/c =  0.0500   19
 Side 2  free  transition at x/c =  0.0567   25

   1   rms: 0.5114E-01   max: -.6962E+00   C at   25  2   RLX: 0.188
       a = -0.750      CL = -5.3760
      Cm =212.1150     CD =  0.45669   =>   CDf =  0.36232    CDp =  0.09437
 
 Side 1 forced transition at x/c =  0.0500   19
 Side 2  free  transition at x/c =  0.0578   25

   2   rms: 0.4217E-01   max: -.6932E+00   C at   25  2   RLX: 0.401
       a = -0.750      CL = -4.8756
      Cm =205.4167     CD =  0.45625   =>   CDf =  0.36219    CDp =  0.09407
 
 Side 1 forced transition at x/c =  0.0500   19
 Side 2  free  transition at x/c =  0.0586   25

   3   rms: 0.2164E-01   max: -.2309E+00   C at   25  2   RLX: 0.667
       a = -0.750      CL = -4.3716
      Cm =198.6748     CD =  0.45635   =>   CDf =  0.36224    CDp =  0.09411
 
 Side 1 forced transition at x/c =  0.0500   19
 Side 2  free  transition at x/c =  0.0598   26

   4   rms: 0.2119E-01   max: -.3280E+00   D at   25  2
       a = -0.750      CL = -4.1347
      Cm =195.5543     CD =  0.45505   =>   CDf =  0.36235    CDp =  0.09270
 
 Side 1 forced transition at x/c =  0.0500   19
 Side 2  free  transition at x/c =  0.0893   28

   5   rms: 0.6882E-02   max: 0.9035E-01   D at   25  2
       a = -0.750      CL = -4.1757
      Cm =196.5230     CD =  0.44993   =>   CDf =  0.35735    CDp =  0.09257
 
 MRCHDU: Convergence failed at  27  side 2    Res =  0.1604E-01
 Side 1 forced transition at x/c =  0.0500   19
 Side 2  free  transition at x/c =  0.0774   27

   6   rms: 0.6156E-02   max: 0.1669E+00   C at   27  2
       a = -0.750      CL = -4.1533
      Cm =195.9894     CD =  0.45279   =>   CDf =  0.35936    CDp =  0.09343
 
 Side 1 forced transition at x/c =  0.0500   19
 Side 2  free  transition at x/c =  0.0753   27

   7   rms: 0.3098E-03   max: -.8098E-02   C at   27  2
       a = -0.750      CL = -4.1530
      Cm =195.9827     CD =  0.45282   =>   CDf =  0.35955    CDp =  0.09326
 
 Side 1 forced transition at x/c =  0.0500   19
 Side 2  free  transition at x/c =  0.0754   27

   8   rms: 0.2328E-05   max: -.6082E-04   C at   27  2
       a = -0.750      CL = -4.1530
      Cm =195.9827     CD =  0.45282   =>   CDf =  0.35954    CDp =  0.09328

 Point added to stored polar  1
 Point written to save file  AIRFOIL_POLARS.dat                              
 Dump file unspecified or not available
 Calculating wake trajectory ...
 Calculating source influence matrix ...
 
 Solving BL system ...
 
 Side 1 forced transition at x/c =  0.0500   19
 Side 2  free  transition at x/c =  0.0754   27

   1   rms: 0.2550E+00   max: -.6661E+01   C at   27  2   RLX: 0.075
       a = -0.500      CL = -4.0450
      Cm =194.6051     CD =  0.45178   =>   CDf =  0.35954    CDp =  0.09223
 
 Side 1 forced transition at x/c =  0.0500   19
 Side 2  free  transition at x/c =  0.0784   27

   2   rms: 0.3824E+00   max: -.1125E+02   C at   27  2   RLX: 0.044
       a = -0.500      CL = -3.9808
      Cm =193.8028     CD =  0.45181   =>   CDf =  0.35913    CDp =  0.09268
 
 Side 1 forced transition at x/c =  0.0500   19
 Side 2  free  transition at x/c =  0.0812   28

   3   rms: 0.1631E+00   max: 0.2415E+01   D at   28  2   RLX: 0.407
       a = -0.500      CL = -3.4796
      Cm =187.6044     CD =  0.44452   =>   CDf =  0.35804    CDp =  0.08648
 
 Side 1 forced transition at x/c =  0.0500   20
 Side 2  free  transition at x/c =  0.0891   27

   4   rms: 0.3963E-01   max: -.6537E+00   C at   27  2   RLX: 0.593
       a = -0.500      CL = -2.9468
      Cm =180.4683     CD =  0.44974   =>   CDf =  0.35767    CDp =  0.09206
 
 Side 1 forced transition at x/c =  0.0500   20
 Side 2 forced transition at x/c =  0.1000   28

   5   rms: 0.9380E-02   max: -.6644E-01   D at   27  2
       a = -0.500      CL = -2.6465
      Cm =176.0811     CD =  0.44835   =>   CDf =  0.35619    CDp =  0.09216
 
 Side 1 forced transition at x/c =  0.0500   20
 Side 2 forced transition at x/c =  0.1000   28

   6   rms: 0.7554E-04   max: 0.9393E-03   n at   27  2
       a = -0.500      CL = -2.6469
      Cm =176.0896     CD =  0.44835   =>   CDf =  0.35644    CDp =  0.09191

 Point added to stored polar  1
 Point written to save file  AIRFOIL_POLARS.dat                              
 Dump file unspecified or not available
 Calculating wake trajectory ...
 Calculating source influence matrix ...
 
 Solving BL system ...
 
 Side 1 forced transition at x/c =  0.0500   20
 Side 2 forced transition at x/c =  0.1000   28

   1   rms: 0.4113E-01   max: -.1808E+00   n at   27  2   RLX: 0.204
       a = -0.250      CL = -2.3311
      Cm =171.8212     CD =  0.44851   =>   CDf =  0.35644    CDp =  0.09206
 
 Side 1 forced transition at x/c =  0.0500   20
 Side 2 forced transition at x/c =  0.1000   28

   2   rms: 0.3256E-01   max: -.1373E+00   n at   27  2   RLX: 0.406
       a = -0.250      CL = -1.8312
      Cm =165.0681     CD =  0.44877   =>   CDf =  0.35660    CDp =  0.09217
 
 Side 1 forced transition at x/c =  0.0500   20
 Side 2 forced transition at x/c =  0.1000   28

   3   rms: 0.1920E-01   max: -.7485E-01   n at   27  2   RLX: 0.683
       a = -0.250      CL = -1.3313
      Cm =158.3189     CD =  0.44906   =>   CDf =  0.35685    CDp =  0.09221
 
 Side 1 forced transition at x/c =  0.0500   20
 Side 2 forced transition at x/c =  0.1000   28

   4   rms: 0.6038E-02   max: -.2097E-01   n at   27  2
       a = -0.250      CL = -1.0994
      Cm =155.1960     CD =  0.44920   =>   CDf =  0.35708    CDp =  0.09211
 
 Side 1 forced transition at x/c =  0.0500   20
 Side 2 forced transition at x/c =  0.1000   28

   5   rms: 0.1235E-04   max: 0.1506E-03   n at   24  2
       a = -0.250      CL = -1.0997
      Cm =155.2026     CD =  0.44920   =>   CDf =  0.35719    CDp =  0.09201

 Point added to stored polar  1
 Point written to save file  AIRFOIL_POLARS.dat                              
 Dump file unspecified or not available
 Calculating wake trajectory ...
 Calculating source influence matrix ...
 
 Solving BL system ...
 
 Side 1 forced transition at x/c =  0.0500   20
 Side 2 forced transition at x/c =  0.1000   28

   1   rms: 0.4033E-01   max: -.1493E+00   n at   27  2   RLX: 0.210
       a =  0.000      CL = -0.7740
      Cm =150.7933     CD =  0.44939   =>   CDf =  0.35719    CDp =  0.09220
 
 Side 1 forced transition at x/c =  0.0500   20
 Side 2 forced transition at x/c =  0.1000   28

   2   rms: 0.3181E-01   max: -.1238E+00   n at   27  2   RLX: 0.408
       a =  0.000      CL = -0.2741
      Cm =144.0291     CD =  0.44969   =>   CDf =  0.35733    CDp =  0.09236
 
 Side 1 forced transition at x/c =  0.0500   20
 Side 2 forced transition at x/c =  0.1000   28

   3   rms: 0.1873E-01   max: -.6877E-01   n at   27  2   RLX: 0.691
       a =  0.000      CL =  0.2259
      Cm =137.2689     CD =  0.45001   =>   CDf =  0.35657    CDp =  0.09344
 
 Side 1 forced transition at x/c =  0.0500   21
 Side 2 forced transition at x/c =  0.1000   27

   4   rms: 0.5899E-02   max: -.1800E-01   n at   26  2
       a =  0.000      CL =  0.4493
      Cm =134.2554     CD =  0.45016   =>   CDf =  0.35777    CDp =  0.09240
 
 Side 1 forced transition at x/c =  0.0500   21
 Side 2 forced transition at x/c =  0.1000   27

   5   rms: 0.1223E-04   max: 0.1013E-03   D at    6  1
       a =  0.000      CL =  0.4490
      Cm =134.2614     CD =  0.45017   =>   CDf =  0.35785    CDp =  0.09231

 Point added to stored polar  1
 Point written to save file  AIRFOIL_POLARS.dat                              
 Dump file unspecified or not available
 Calculating wake trajectory ...
 Calculating source influence matrix ...
 
 Solving BL system ...
 
 Side 1 forced transition at x/c =  0.0500   21
 Side 2 forced transition at x/c =  0.1000   27

   1   rms: 0.3987E-01   max: -.1276E+00   n at   26  2   RLX: 0.217
       a =  0.250      CL =  0.7848
      Cm =129.7141     CD =  0.45038   =>   CDf =  0.35785    CDp =  0.09253
 
 Side 1 forced transition at x/c =  0.0500   21
 Side 2 forced transition at x/c =  0.1000   27

   2   rms: 0.3121E-01   max: -.1010E+00   n at   26  2   RLX: 0.412
       a =  0.250      CL =  1.2847
      Cm =122.9486     CD =  0.45073   =>   CDf =  0.35798    CDp =  0.09274
 
 Side 1 forced transition at x/c =  0.0500   21
 Side 2 forced transition at x/c =  0.1000   27

   3   rms: 0.1826E-01   max: -.5344E-01   n at   25  2   RLX: 0.702
       a =  0.250      CL =  1.7847
      Cm =116.1874     CD =  0.45109   =>   CDf =  0.35817    CDp =  0.09292
 
 Side 1 forced transition at x/c =  0.0500   21
 Side 2 forced transition at x/c =  0.1000   27

   4   rms: 0.5409E-02   max: -.1218E-01   n at   26  2
       a =  0.250      CL =  1.9965
      Cm =113.3306     CD =  0.45125   =>   CDf =  0.35835    CDp =  0.09291
 
 Side 1 forced transition at x/c =  0.0500   21
 Side 2 forced transition at x/c =  0.1000   27

   5   rms: 0.5112E-05   max: 0.3838E-04   n at   23  2
       a =  0.250      CL =  1.9963
      Cm =113.3367     CD =  0.45126   =>   CDf =  0.35842    CDp =  0.09284

 Point added to stored polar  1
 Point written to save file  AIRFOIL_POLARS.dat                              
 Dump file unspecified or not available
 Calculating wake trajectory ...
 Calculating source influence matrix ...
 
 Solving BL system ...
 
 Side 1 forced transition at x/c =  0.0500   21
 Side 2 forced transition at x/c =  0.1000   27

   1   rms: 0.3954E-01   max: -.8542E-01   n at   24  2   RLX: 0.224
       a =  0.500      CL =  2.3432
      Cm =108.6327     CD =  0.45151   =>   CDf =  0.35842    CDp =  0.09310
 
 Side 1 forced transition at x/c =  0.0500   21
 Side 2 forced transition at x/c =  0.1000   27

   2   rms: 0.3064E-01   max: -.6312E-01   n at   26  2   RLX: 0.416
       a =  0.500      CL =  2.8431
      Cm =101.8596     CD =  0.45189   =>   CDf =  0.35853    CDp =  0.09336
 
 Side 1 forced transition at x/c =  0.0500   21
 Side 2 forced transition at x/c =  0.1000   27

   3   rms: 0.1792E-01   max: -.3810E-01   n at   25  2   RLX: 0.712
       a =  0.500      CL =  3.3431
      Cm = 95.0909     CD =  0.45229   =>   CDf =  0.35869    CDp =  0.09360
 
 Side 1 forced transition at x/c =  0.0500   21
 Side 2 forced transition at x/c =  0.1000   27

   4   rms: 0.5177E-02   max: -.1247E-01   n at   26  2
       a =  0.500      CL =  3.5446
      Cm = 92.3699     CD =  0.45247   =>   CDf =  0.35765    CDp =  0.09482
 
 Side 1 forced transition at x/c =  0.0500   22
 Side 2 forced transition at x/c =  0.1000   26

   5   rms: 0.2116E-03   max: -.3888E-02   D at    2  1
       a =  0.500      CL =  3.5444
      Cm = 92.3757     CD =  0.45247   =>   CDf =  0.35891    CDp =  0.09356
 
 Side 1 forced transition at x/c =  0.0500   22
 Side 2 forced transition at x/c =  0.1000   26

   6   rms: 0.8756E-04   max: -.1000E-02   D at    4  1
       a =  0.500      CL =  3.5444
      Cm = 92.3752     CD =  0.45247   =>   CDf =  0.35891    CDp =  0.09356

 Point added to stored polar  1
 Point written to save file  AIRFOIL_POLARS.dat                              
 Dump file unspecified or not available
 Calculating wake trajectory ...
 Calculating source influence matrix ...
 
 Solving BL system ...
 
 Side 1 forced transition at x/c =  0.0500   22
 Side 2 forced transition at x/c =  0.1000   26

   1   rms: 0.4041E-01   max: -.1062E+00   n at   25  2   RLX: 0.232
       a =  0.750      CL =  3.9030
      Cm = 87.5111     CD =  0.45276   =>   CDf =  0.35890    CDp =  0.09386
 
 Side 1 forced transition at x/c =  0.0500   22
 Side 2 forced transition at x/c =  0.1000   26

   2   rms: 0.3069E-01   max: -.8197E-01   n at   24  2   RLX: 0.420
       a =  0.750      CL =  4.4030
      Cm = 80.7357     CD =  0.45318   =>   CDf =  0.35900    CDp =  0.09418
 
 Side 1 forced transition at x/c =  0.0500   22
 Side 2 forced transition at x/c =  0.1000   26

   3   rms: 0.1777E-01   max: -.4629E-01   n at   25  2   RLX: 0.725
       a =  0.750      CL =  4.9029
      Cm = 73.9649     CD =  0.45362   =>   CDf =  0.35914    CDp =  0.09448
 
 Side 1 forced transition at x/c =  0.0500   22
 Side 2 forced transition at x/c =  0.1000   26

   4   rms: 0.4844E-02   max: -.1088E-01   n at   23  2
       a =  0.750      CL =  5.0918
      Cm = 71.4149     CD =  0.45380   =>   CDf =  0.35928    CDp =  0.09453
 
 Side 1 forced transition at x/c =  0.0500   22
 Side 2 forced transition at x/c =  0.1000   26

   5   rms: 0.3925E-05   max: 0.1872E-04   D at  104  2
       a =  0.750      CL =  5.0916
      Cm = 71.4205     CD =  0.45380   =>   CDf =  0.35933    CDp =  0.09448

 Point added to stored polar  1
 Point written to save file  AIRFOIL_POLARS.dat                              
 Dump file unspecified or not available
 Calculating wake trajectory ...
 Calculating source influence matrix ...
 
 Solving BL system ...
 
 Side 1 forced transition at x/c =  0.0500   22
 Side 2 forced transition at x/c =  0.1000   26

   1   rms: 0.3955E-01   max: -.8752E-01   n at   24  2   RLX: 0.240
       a =  1.000      CL =  5.4627
      Cm = 66.3840     CD =  0.45413   =>   CDf =  0.35931    CDp =  0.09482
 
 Side 1 forced transition at x/c =  0.0500   22
 Side 2 forced transition at x/c =  0.1000   26

   2   rms: 0.2985E-01   max: -.5176E-01   n at   23  2   RLX: 0.425
       a =  1.000      CL =  5.9627
      Cm = 59.6062     CD =  0.45460   =>   CDf =  0.35940    CDp =  0.09519
 
 Side 1 forced transition at x/c =  0.0500   22
 Side 2 forced transition at x/c =  0.1000   26

   3   rms: 0.1706E-01   max: -.7020E-02   D at   98  2   RLX: 0.740
       a =  1.000      CL =  6.4627
      Cm = 52.8334     CD =  0.45508   =>   CDf =  0.35952    CDp =  0.09556
 
 Side 1 forced transition at x/c =  0.0500   22
 Side 2 forced transition at x/c =  0.1000   26

   4   rms: 0.4444E-02   max: -.1847E-02   D at   98  2
       a =  1.000      CL =  6.6381
      Cm = 50.4637     CD =  0.45526   =>   CDf =  0.35963    CDp =  0.09563
 
 Side 1 forced transition at x/c =  0.0500   22
 Side 2 forced transition at x/c =  0.1000   26

   5   rms: 0.4345E-05   max: -.3060E-04   D at    6  2
       a =  1.000      CL =  6.6379
      Cm = 50.4687     CD =  0.45526   =>   CDf =  0.35967    CDp =  0.09559

 Point added to stored polar  1
 Point written to save file  AIRFOIL_POLARS.dat                              
 Dump file unspecified or not available
 Calculating wake trajectory ...
 Calculating source influence matrix ...
 
 Solving BL system ...
 
 Side 1 forced transition at x/c =  0.0500   22
 Side 2 forced transition at x/c =  0.1000   26

   1   rms: 0.3940E-01   max: -.6733E-01   n at   24  2   RLX: 0.249
       a =  1.250      CL =  7.0229
      Cm = 45.2405     CD =  0.45563   =>   CDf =  0.35825    CDp =  0.09739
 
 Side 1 forced transition at x/c =  0.0500   23
 Side 2 forced transition at x/c =  0.1000   25

   2   rms: 0.4943E-01   max: 0.7365E+00   D at    2  1   RLX: 0.430
       a =  1.250      CL =  7.5229
      Cm = 38.4594     CD =  0.45614   =>   CDf =  0.35972    CDp =  0.09642
 
 Side 1 forced transition at x/c =  0.0500   23
 Side 2 forced transition at x/c =  0.1000   25

   3   rms: 0.1707E-01   max: -.4400E-01   n at   22  2   RLX: 0.754
       a =  1.250      CL =  8.0229
      Cm = 31.6800     CD =  0.45666   =>   CDf =  0.35982    CDp =  0.09684
 
 Side 1 forced transition at x/c =  0.0500   23
 Side 2 forced transition at x/c =  0.1000   25

   4   rms: 0.4139E-02   max: -.7407E-02   n at   23  2
       a =  1.250      CL =  8.1854
      Cm = 29.4830     CD =  0.45684   =>   CDf =  0.35991    CDp =  0.09693
 
 Side 1 forced transition at x/c =  0.0500   23
 Side 2 forced transition at x/c =  0.1000   25

   5   rms: 0.3225E-05   max: 0.1637E-04   D at  103  2
       a =  1.250      CL =  8.1852
      Cm = 29.4875     CD =  0.45684   =>   CDf =  0.35994    CDp =  0.09690

 Point added to stored polar  1
 Point written to save file  AIRFOIL_POLARS.dat                              
 Dump file unspecified or not available
 Calculating wake trajectory ...
 Calculating source influence matrix ...
 
 Solving BL system ...
 
 Side 1 forced transition at x/c =  0.0500   23
 Side 2 forced transition at x/c =  0.1000   25

   1   rms: 0.3912E-01   max: -.1602E-01   D at   99  2   RLX: 0.258
       a =  1.500      CL =  8.5847
      Cm = 24.0613     CD =  0.45726   =>   CDf =  0.35992    CDp =  0.09734
 
 Side 1 forced transition at x/c =  0.0500   23
 Side 2 forced transition at x/c =  0.1000   25

   2   rms: 0.2897E-01   max: -.1185E-01   D at   97  2   RLX: 0.436
       a =  1.500      CL =  9.0847
      Cm = 17.2770     CD =  0.45780   =>   CDf =  0.35998    CDp =  0.09782
 
 Side 1 forced transition at x/c =  0.0500   23
 Side 2 forced transition at x/c =  0.1000   25

   3   rms: 0.1632E-01   max: -.6703E-02   D at   97  2   RLX: 0.772
       a =  1.500      CL =  9.5847
      Cm = 10.4980     CD =  0.45837   =>   CDf =  0.36006    CDp =  0.09832
 
 Side 1 forced transition at x/c =  0.0500   23
 Side 2 forced transition at x/c =  0.1000   25

   4   rms: 0.3711E-02   max: -.1546E-02   D at   97  2
       a =  1.500      CL =  9.7316
      Cm =  8.5128     CD =  0.45855   =>   CDf =  0.36012    CDp =  0.09843
 
 Side 1 forced transition at x/c =  0.0500   23
 Side 2 forced transition at x/c =  0.1000   25

   5   rms: 0.2893E-05   max: 0.1473E-04   D at  104  2
       a =  1.500      CL =  9.7315
      Cm =  8.5169     CD =  0.45855   =>   CDf =  0.36014    CDp =  0.09841

 Point added to stored polar  1
 Point written to save file  AIRFOIL_POLARS.dat                              
 Dump file unspecified or not available
 Calculating wake trajectory ...
 Calculating source influence matrix ...
 
 Solving BL system ...
 
 Side 1 forced transition at x/c =  0.0500   23
 Side 2 forced transition at x/c =  0.1000   25

   1   rms: 0.3904E-01   max: -.1592E-01   D at   99  2   RLX: 0.269
       a =  1.750      CL = 10.1468
      Cm =  2.8745     CD =  0.45903   =>   CDf =  0.36012    CDp =  0.09891
 
 Side 1 forced transition at x/c =  0.0500   23
 Side 2 forced transition at x/c =  0.1000   25

   2   rms: 0.2853E-01   max: -.1161E-01   D at   99  2   RLX: 0.442
       a =  1.750      CL = 10.6468
      Cm = -3.9097     CD =  0.45962   =>   CDf =  0.35852    CDp =  0.10110
 
 Side 1 forced transition at x/c =  0.0500   24
 Side 2 forced transition at x/c =  0.1000   24

   3   rms: 0.1676E-01   max: -.6471E-02   D at   96  2   RLX: 0.793
       a =  1.750      CL = 11.1468
      Cm =-10.6888     CD =  0.46023   =>   CDf =  0.36020    CDp =  0.10003
 
 Side 1 forced transition at x/c =  0.0500   24
 Side 2 forced transition at x/c =  0.1000   24

   4   rms: 0.3305E-02   max: -.1361E-02   D at   96  2
       a =  1.750      CL = 11.2768
      Cm =-12.4443     CD =  0.46040   =>   CDf =  0.36025    CDp =  0.10015
 
 Side 1 forced transition at x/c =  0.0500   24
 Side 2 forced transition at x/c =  0.1000   24

   5   rms: 0.2599E-05   max: -.1110E-04   D at   95  2
       a =  1.750      CL = 11.2766
      Cm =-12.4406     CD =  0.46040   =>   CDf =  0.36026    CDp =  0.10014

 Point added to stored polar  1
 Point written to save file  AIRFOIL_POLARS.dat                              
 Dump file unspecified or not available
 Calculating wake trajectory ...
 Calculating source influence matrix ...
 
 Solving BL system ...
 
 Side 1 forced transition at x/c =  0.0500   24
 Side 2 forced transition at x/c =  0.1000   24

   1   rms: 0.3909E-01   max: -.1594E-01   D at   98  2   RLX: 0.280
[...]

   5   rms: 0.1447E-05   max: 0.5348E-05   C at   31  1
       a =  9.000      CL = 54.8527
      Cm =********     CD =  0.65482   =>   CDf =  0.35443    CDp =  0.30039

 Point added to stored polar  1
 Point written to save file  AIRFOIL_POLARS.dat                              
 Dump file unspecified or not available
 Calculating wake trajectory ...
 Calculating source influence matrix ...
 
 Solving BL system ...
 
 Side 1  free  transition at x/c =  0.0050   22
 Side 2 forced transition at x/c =  0.1000   13

   1   rms: 0.3924E-01   max: 0.2571E-01   D at   97  2   RLX: 0.326
       a =  9.250      CL = 55.3167
      Cm =********     CD =  0.65869   =>   CDf =  0.35439    CDp =  0.30430
 
 Side 1  free  transition at x/c =  0.0049   22
 Side 2 forced transition at x/c =  0.1000   13

   2   rms: 0.2636E-01   max: 0.1775E-01   D at   97  2   RLX: 0.523
       a =  9.250      CL = 55.8168
      Cm =********     CD =  0.66299   =>   CDf =  0.35404    CDp =  0.30895
 
 Side 1  free  transition at x/c =  0.0049   22
 Side 2 forced transition at x/c =  0.1000   13

   3   rms: 0.1253E-01   max: 0.8697E-02   D at   97  2
       a =  9.250      CL = 56.2687
      Cm =********     CD =  0.66707   =>   CDf =  0.35365    CDp =  0.31341
 
 Side 1  free  transition at x/c =  0.0048   22
 Side 2 forced transition at x/c =  0.1000   13

   4   rms: 0.5094E-04   max: -.1587E-03   D at   91  2
       a =  9.250      CL = 56.2661
      Cm =********     CD =  0.66705   =>   CDf =  0.35329    CDp =  0.31376

 Point added to stored polar  1
 Point written to save file  AIRFOIL_POLARS.dat                              
 Dump file unspecified or not available
 Calculating wake trajectory ...
 Calculating source influence matrix ...
 
 Solving BL system ...
 
 Side 1  free  transition at x/c =  0.0048   22
 Side 2 forced transition at x/c =  0.1000   13

   1   rms: 0.3908E-01   max: 0.2757E-01   D at   97  2   RLX: 0.288
       a =  9.500      CL = 56.6724
      Cm =********     CD =  0.67077   =>   CDf =  0.35325    CDp =  0.31752
 
 Side 1  free  transition at x/c =  0.0048   22
 Side 2 forced transition at x/c =  0.1000   13

   2   rms: 0.2786E-01   max: 0.1994E-01   D at   97  2   RLX: 0.499
       a =  9.500      CL = 57.1725
      Cm =********     CD =  0.67543   =>   CDf =  0.34381    CDp =  0.33162
 
 Side 1  free  transition at x/c =  0.0047   23
 Side 2 forced transition at x/c =  0.1000   12

   3   rms: 0.1566E-01   max: 0.1232E+00   T at    2  1
       a =  9.500      CL = 57.6689
      Cm =********     CD =  0.68022   =>   CDf =  0.35243    CDp =  0.32779
 
 Side 1  free  transition at x/c =  0.0047   23
 Side 2 forced transition at x/c =  0.1000   12

   4   rms: 0.1536E-03   max: -.2732E-02   D at   23  1
       a =  9.500      CL = 57.6657
      Cm =********     CD =  0.68019   =>   CDf =  0.35202    CDp =  0.32816
 
 Side 1  free  transition at x/c =  0.0047   23
 Side 2 forced transition at x/c =  0.1000   12

   5   rms: 0.2169E-05   max: 0.6505E-05   C at   86  2
       a =  9.500      CL = 57.6657
      Cm =********     CD =  0.68019   =>   CDf =  0.35203    CDp =  0.32816

 Point added to stored polar  1
 Point written to save file  AIRFOIL_POLARS.dat                              
 Dump file unspecified or not available
 Calculating wake trajectory ...
 Calculating source influence matrix ...
 
 Solving BL system ...
 
 Side 1  free  transition at x/c =  0.0047   23
 Side 2 forced transition at x/c =  0.1000   12

   1   rms: 0.3909E-01   max: 0.2940E-01   D at   96  2   RLX: 0.257
       a =  9.750      CL = 58.0232
      Cm =********     CD =  0.68376   =>   CDf =  0.35199    CDp =  0.33177
 
 Side 1  free  transition at x/c =  0.0046   23
 Side 2 forced transition at x/c =  0.1000   12

   2   rms: 0.2904E-01   max: 0.2211E-01   D at   96  2   RLX: 0.483
       a =  9.750      CL = 58.5232
      Cm =********     CD =  0.68882   =>   CDf =  0.35169    CDp =  0.33713
 
 Side 1  free  transition at x/c =  0.0045   23
 Side 2 forced transition at x/c =  0.1000   12

   3   rms: 0.1499E-01   max: 0.1167E-01   D at   96  2   RLX: 0.944
       a =  9.750      CL = 59.0233
      Cm =********     CD =  0.69409   =>   CDf =  0.35128    CDp =  0.34281
 
 Side 1  free  transition at x/c =  0.0045   23
 Side 2 forced transition at x/c =  0.1000   12

   4   rms: 0.7981E-03   max: -.3225E-02   D at   23  1
       a =  9.750      CL = 59.0493
      Cm =********     CD =  0.69439   =>   CDf =  0.35087    CDp =  0.34352
 
 Side 1  free  transition at x/c =  0.0045   23
 Side 2 forced transition at x/c =  0.1000   12

   5   rms: 0.3546E-05   max: 0.1523E-04   D at  115  1
       a =  9.750      CL = 59.0492
      Cm =********     CD =  0.69439   =>   CDf =  0.35085    CDp =  0.34354

 Point added to stored polar  1
 Point written to save file  AIRFOIL_POLARS.dat                              
 Dump file unspecified or not available
 Calculating wake trajectory ...
 Calculating source influence matrix ...
 
 Solving BL system ...
 
 Side 1  free  transition at x/c =  0.0045   23
 Side 2 forced transition at x/c =  0.1000   12

   1   rms: 0.3925E-01   max: 0.3120E-01   D at   96  2   RLX: 0.229
       a = 10.000      CL = 59.3649
      Cm =********     CD =  0.69782   =>   CDf =  0.35081    CDp =  0.34701
 
 Side 1  free  transition at x/c =  0.0044   23
 Side 2 forced transition at x/c =  0.1000   12

   2   rms: 0.3028E-01   max: 0.2446E-01   D at   96  2   RLX: 0.471
       a = 10.000      CL = 59.8650
      Cm =********     CD =  0.70333   =>   CDf =  0.35056    CDp =  0.35277
 
 Side 1  free  transition at x/c =  0.0044   23
 Side 2 forced transition at x/c =  0.1000   12

   3   rms: 0.1602E-01   max: 0.1336E-01   D at   96  2   RLX: 0.902
       a = 10.000      CL = 60.3651
      Cm =********     CD =  0.70915   =>   CDf =  0.35015    CDp =  0.35899
 
 Side 1  free  transition at x/c =  0.0043   23
 Side 2 forced transition at x/c =  0.1000   12

   4   rms: 0.1579E-02   max: 0.6756E-02   T at   23  1
       a = 10.000      CL = 60.4144
      Cm =********     CD =  0.70983   =>   CDf =  0.34973    CDp =  0.36010
 
 Side 1  free  transition at x/c =  0.0043   23
 Side 2 forced transition at x/c =  0.1000   12

   5   rms: 0.8693E-05   max: 0.3177E-04   T at   24  1
       a = 10.000      CL = 60.4140
      Cm =********     CD =  0.70982   =>   CDf =  0.34967    CDp =  0.36015

 Point added to stored polar  1
 Point written to save file  AIRFOIL_POLARS.dat                              
 Dump file unspecified or not available
 Calculating wake trajectory ...
 Calculating source influence matrix ...
 
 Solving BL system ...
 
 Side 1  free  transition at x/c =  0.0043   23
 Side 2 forced transition at x/c =  0.1000   12

   1   rms: 0.3960E-01   max: 0.3449E-01   D at   96  2   RLX: 0.205
       a = 10.250      CL = 60.6920
      Cm =********     CD =  0.71328   =>   CDf =  0.34963    CDp =  0.36365
 
 Side 1  free  transition at x/c =  0.0042   23
 Side 2 forced transition at x/c =  0.1000   12

   2   rms: 0.3155E-01   max: 0.2824E-01   D at   96  2   RLX: 0.465
       a = 10.250      CL = 61.1922
      Cm =********     CD =  0.71970   =>   CDf =  0.33951    CDp =  0.38019
 
 Side 1  free  transition at x/c =  0.0041   24
 Side 2 forced transition at x/c =  0.1000   11

   3   rms: 0.3902E-01   max: 0.6623E+00   T at    2  1   RLX: 0.889
       a = 10.250      CL = 61.6923
      Cm =********     CD =  0.72705   =>   CDf =  0.34873    CDp =  0.37833
 
 Side 1  free  transition at x/c =  0.0040   24
 Side 2 forced transition at x/c =  0.1000   11

   4   rms: 0.2173E-02   max: 0.7496E-02   T at   24  1
       a = 10.250      CL = 61.7455
      Cm =********     CD =  0.72836   =>   CDf =  0.34799    CDp =  0.38036
 
 Side 1  free  transition at x/c =  0.0040   24
 Side 2 forced transition at x/c =  0.1000   11

   5   rms: 0.3172E-04   max: 0.3071E-03   D at   23  1
       a = 10.250      CL = 61.7447
      Cm =********     CD =  0.72835   =>   CDf =  0.34786    CDp =  0.38049

 Point added to stored polar  1
 Point written to save file  AIRFOIL_POLARS.dat                              
 Dump file unspecified or not available
 Calculating wake trajectory ...
 Calculating source influence matrix ...
 
 Solving BL system ...
 
 Side 1  free  transition at x/c =  0.0040   24
 Side 2 forced transition at x/c =  0.1000   11

   1   rms: 0.4260E-01   max: 0.4409E-01   D at   95  2   RLX: 0.182
       a = 10.500      CL = 61.9810
      Cm =********     CD =  0.73245   =>   CDf =  0.34783    CDp =  0.38462
 
 Side 1  free  transition at x/c =  0.0040   24
 Side 2 forced transition at x/c =  0.1000   11

   2   rms: 0.3638E-01   max: 0.1123E+00   T at   24  1   RLX: 0.475
       a = 10.500      CL = 62.4812
      Cm =********     CD =  0.74207   =>   CDf =  0.34736    CDp =  0.39472
 
 Side 1  free  transition at x/c =  0.0038   24
 Side 2 forced transition at x/c =  0.1000   11

   3   rms: 0.2313E-01   max: 0.1226E+00   D at   24  1   RLX: 0.982
       a = 10.500      CL = 62.9812
      Cm =********     CD =  0.75666   =>   CDf =  0.34603    CDp =  0.41064
 
 Side 1  free  transition at x/c =  0.0037   23
 Side 2 forced transition at x/c =  0.1000   11

   4   rms: 0.8263E-02   max: -.1049E+00   D at   23  1
       a = 10.500      CL = 63.0061
      Cm =********     CD =  0.75332   =>   CDf =  0.34376    CDp =  0.40957
 
 Side 1  free  transition at x/c =  0.0037   23
 Side 2 forced transition at x/c =  0.1000   11

   5   rms: 0.1521E-03   max: 0.1666E-02   D at   24  1
       a = 10.500      CL = 63.0076
      Cm =********     CD =  0.75348   =>   CDf =  0.34460    CDp =  0.40887
 
 Side 1  free  transition at x/c =  0.0037   23
 Side 2 forced transition at x/c =  0.1000   11

   6   rms: 0.1351E-05   max: 0.4924E-05   C at   35  1
       a = 10.500      CL = 63.0076
      Cm =********     CD =  0.75347   =>   CDf =  0.34459    CDp =  0.40888

 Point added to stored polar  1
 Point written to save file  AIRFOIL_POLARS.dat                              
 Dump file unspecified or not available
 Calculating wake trajectory ...
 Calculating source influence matrix ...
 
 Solving BL system ...
 
 Side 1  free  transition at x/c =  0.0037   23
 Side 2 forced transition at x/c =  0.1000   11

   1   rms: 0.3780E-01   max: 0.3359E-01   D at   95  2   RLX: 0.164
       a = 10.750      CL = 63.2254
      Cm =********     CD =  0.75616   =>   CDf =  0.34456    CDp =  0.41161
 
 Side 1  free  transition at x/c =  0.0037   23
 Side 2 forced transition at x/c =  0.1000   11

   2   rms: 0.3158E-01   max: 0.2832E-01   D at   95  2   RLX: 0.448
       a = 10.750      CL = 63.7255
      Cm =********     CD =  0.76234   =>   CDf =  0.34434    CDp =  0.41800
 
 Side 1  free  transition at x/c =  0.0037   23
 Side 2 forced transition at x/c =  0.1000   11

   3   rms: 0.1735E-01   max: 0.1590E-01   D at   95  2   RLX: 0.822
       a = 10.750      CL = 64.2255
      Cm =********     CD =  0.76872   =>   CDf =  0.34383    CDp =  0.42489
 
 Side 1  free  transition at x/c =  0.0037   23
 Side 2 forced transition at x/c =  0.1000   11

   4   rms: 0.3029E-02   max: 0.2872E-02   D at   96  2
       a = 10.750      CL = 64.3286
      Cm =********     CD =  0.77009   =>   CDf =  0.34331    CDp =  0.42679
 
 Side 1  free  transition at x/c =  0.0037   23
 Side 2 forced transition at x/c =  0.1000   11

   5   rms: 0.1260E-04   max: -.4014E-04   D at   90  2
       a = 10.750      CL = 64.3278
      Cm =********     CD =  0.77007   =>   CDf =  0.34319    CDp =  0.42687

 Point added to stored polar  1
 Point written to save file  AIRFOIL_POLARS.dat                              
 Dump file unspecified or not available
 Calculating wake trajectory ...
 Calculating source influence matrix ...
 
 Solving BL system ...
 
 Side 1  free  transition at x/c =  0.0037   23
 Side 2 forced transition at x/c =  0.1000   11

   1   rms: 0.3769E-01   max: 0.3461E-01   D at   95  2   RLX: 0.150
       a = 11.000      CL = 64.5239
      Cm =********     CD =  0.77261   =>   CDf =  0.34316    CDp =  0.42945
 
 Side 1  free  transition at x/c =  0.0037   23
 Side 2 forced transition at x/c =  0.1000   11

   2   rms: 0.3202E-01   max: 0.2970E-01   D at   95  2   RLX: 0.446
       a = 11.000      CL = 65.0240
      Cm =********     CD =  0.77910   =>   CDf =  0.34296    CDp =  0.43614
 
 Side 1  free  transition at x/c =  0.0037   23
 Side 2 forced transition at x/c =  0.1000   11

   3   rms: 0.1767E-01   max: 0.1685E-01   D at   95  2   RLX: 0.817
       a = 11.000      CL = 65.5240
      Cm =********     CD =  0.78587   =>   CDf =  0.33182    CDp =  0.45405
 
 Side 1  free  transition at x/c =  0.0037   24
 Side 2 forced transition at x/c =  0.1000   10

   4   rms: 0.5619E-02   max: 0.8535E-01   T at    2  1
       a = 11.000      CL = 65.6297
      Cm =********     CD =  0.78739   =>   CDf =  0.34181    CDp =  0.44558
 
 Side 1  free  transition at x/c =  0.0037   24
 Side 2 forced transition at x/c =  0.1000   10

   5   rms: 0.6243E-04   max: -.7330E-03   D at    4  1
       a = 11.000      CL = 65.6287
      Cm =********     CD =  0.78736   =>   CDf =  0.34169    CDp =  0.44567

 Point added to stored polar  1
 Point written to save file  AIRFOIL_POLARS.dat                              
 Dump file unspecified or not available
 Calculating wake trajectory ...
 Calculating source influence matrix ...
 
 Solving BL system ...
 
 Side 1  free  transition at x/c =  0.0037   24
 Side 2 forced transition at x/c =  0.1000   10

   1   rms: 0.3770E-01   max: 0.3635E-01   D at   94  2   RLX: 0.137
       a = 11.250      CL = 65.8051
      Cm =********     CD =  0.78984   =>   CDf =  0.34165    CDp =  0.44818
 
 Side 1  free  transition at x/c =  0.0037   24
 Side 2 forced transition at x/c =  0.1000   10

   2   rms: 0.3249E-01   max: 0.3172E-01   D at   94  2   RLX: 0.447
       a = 11.250      CL = 66.3052
      Cm =********     CD =  0.79686   =>   CDf =  0.34146    CDp =  0.45541
 
 Side 1  free  transition at x/c =  0.0037   24
 Side 2 forced transition at x/c =  0.1000   10

   3   rms: 0.1789E-01   max: 0.1808E-01   D at   94  2   RLX: 0.821
       a = 11.250      CL = 66.8053
      Cm =********     CD =  0.80421   =>   CDf =  0.34089    CDp =  0.46333
 
 Side 1  free  transition at x/c =  0.0036   24
 Side 2 forced transition at x/c =  0.1000   10

   4   rms: 0.3129E-02   max: 0.3435E-02   D at   95  2
       a = 11.250      CL = 66.9065
      Cm =********     CD =  0.80586   =>   CDf =  0.34027    CDp =  0.46558
 
 Side 1  free  transition at x/c =  0.0036   24
 Side 2 forced transition at x/c =  0.1000   10

   5   rms: 0.1579E-04   max: -.3533E-04   D at   89  2
       a = 11.250      CL = 66.9055
      Cm =********     CD =  0.80582   =>   CDf =  0.34013    CDp =  0.46569

 Point added to stored polar  1
 Point written to save file  AIRFOIL_POLARS.dat                              
 Dump file unspecified or not available
 Calculating wake trajectory ...
 Calculating source influence matrix ...
 
 Solving BL system ...
 
 Side 1  free  transition at x/c =  0.0036   24
 Side 2 forced transition at x/c =  0.1000   10

   1   rms: 0.3744E-01   max: 0.3922E-01   D at   94  2   RLX: 0.125
       a = 11.500      CL = 67.0625
      Cm =********     CD =  0.80830   =>   CDf =  0.34010    CDp =  0.46820
 
 Side 1  free  transition at x/c =  0.0036   24
 Side 2 forced transition at x/c =  0.1000   10

   2   rms: 0.3273E-01   max: 0.3453E-01   D at   94  2   RLX: 0.451
       a = 11.500      CL = 67.5626
      Cm =********     CD =  0.81613   =>   CDf =  0.33989    CDp =  0.47624
 
 Side 1  free  transition at x/c =  0.0036   24
 Side 2 forced transition at x/c =  0.1000   10

   3   rms: 0.1786E-01   max: 0.1941E-01   D at   94  2   RLX: 0.838
       a = 11.500      CL = 68.0626
      Cm =********     CD =  0.82430   =>   CDf =  0.33923    CDp =  0.48507
 
 Side 1  free  transition at x/c =  0.0036   24
 Side 2 forced transition at x/c =  0.1000   10

   4   rms: 0.2799E-02   max: 0.3301E-02   D at   95  2
       a = 11.500      CL = 68.1509
      Cm =********     CD =  0.82586   =>   CDf =  0.33854    CDp =  0.48731
 
 Side 1  free  transition at x/c =  0.0036   24
 Side 2 forced transition at x/c =  0.1000   10

   5   rms: 0.1554E-04   max: -.2619E-04   D at   89  2
       a = 11.500      CL = 68.1498
      Cm =********     CD =  0.82582   =>   CDf =  0.33841    CDp =  0.48741

 Point added to stored polar  1
 Point written to save file  AIRFOIL_POLARS.dat                              
 Dump file unspecified or not available
 Calculating wake trajectory ...
 Calculating source influence matrix ...
 
 Solving BL system ...
 
 Side 1  free  transition at x/c =  0.0036   24
 Side 2 forced transition at x/c =  0.1000   10

   1   rms: 0.3741E-01   max: 0.4164E-01   D at   94  2   RLX: 0.114
       a = 11.750      CL = 68.2899
      Cm =********     CD =  0.82825   =>   CDf =  0.33838    CDp =  0.48987
 
 Side 1  free  transition at x/c =  0.0036   24
 Side 2 forced transition at x/c =  0.1000   10

   2   rms: 0.3310E-01   max: 0.3717E-01   D at   94  2   RLX: 0.456
       a = 11.750      CL = 68.7900
      Cm =********     CD =  0.83688   =>   CDf =  0.33818    CDp =  0.49870
 
 Side 1  free  transition at x/c =  0.0036   24
 Side 2 forced transition at x/c =  0.1000   10

   3   rms: 0.1788E-01   max: 0.2082E-01   D at   94  2   RLX: 0.861
       a = 11.750      CL = 69.2901
      Cm =********     CD =  0.84598   =>   CDf =  0.33746    CDp =  0.50852
 
 Side 1  free  transition at x/c =  0.0035   24
 Side 2 forced transition at x/c =  0.1000   10

   4   rms: 0.2391E-02   max: 0.3155E-02   D at   95  2
       a = 11.750      CL = 69.3613
      Cm =********     CD =  0.84745   =>   CDf =  0.33669    CDp =  0.51075
 
 Side 1  free  transition at x/c =  0.0035   24
 Side 2 forced transition at x/c =  0.1000   10

   5   rms: 0.1668E-04   max: 0.2449E-04   D at   95  2
       a = 11.750      CL = 69.3602
      Cm =********     CD =  0.84741   =>   CDf =  0.33657    CDp =  0.51084

 Point added to stored polar  1
 Point written to save file  AIRFOIL_POLARS.dat                              
 Dump file unspecified or not available
 Calculating wake trajectory ...
 Calculating source influence matrix ...
 
 Solving BL system ...
 
 Side 1  free  transition at x/c =  0.0035   24
 Side 2 forced transition at x/c =  0.1000   10

   1   rms: 0.3716E-01   max: 0.4350E-01   D at   94  2   RLX: 0.105
       a = 12.000      CL = 69.4849
      Cm =********     CD =  0.84977   =>   CDf =  0.33654    CDp =  0.51323
 
 Side 1  free  transition at x/c =  0.0035   24
 Side 2 forced transition at x/c =  0.1000   10

   2   rms: 0.3325E-01   max: 0.3920E-01   D at   94  2   RLX: 0.463
       a = 12.000      CL = 69.9850
      Cm =********     CD =  0.85913   =>   CDf =  0.32488    CDp =  0.53425
 
 Side 1  free  transition at x/c =  0.0035   25
 Side 2 forced transition at x/c =  0.1000    9

   3   rms: 0.4662E-01   max: 0.8156E+00   T at    2  1   RLX: 0.887
       a = 12.000      CL = 70.4851
      Cm =********     CD =  0.86898   =>   CDf =  0.33550    CDp =  0.53348
 
 Side 1  free  transition at x/c =  0.0035   25
 Side 2 forced transition at x/c =  0.1000    9

   4   rms: 0.2035E-02   max: 0.2841E-02   D at   94  2
       a = 12.000      CL = 70.5377
      Cm =********     CD =  0.87017   =>   CDf =  0.33470    CDp =  0.53547
 
 Side 1  free  transition at x/c =  0.0035   25
 Side 2 forced transition at x/c =  0.1000    9

   5   rms: 0.1586E-04   max: 0.3011E-04   D at   94  2
       a = 12.000      CL = 70.5367
      Cm =********     CD =  0.87013   =>   CDf =  0.33460    CDp =  0.53553

 Point added to stored polar  1
 Point written to save file  AIRFOIL_POLARS.dat                              
 Dump file unspecified or not available

.OPERva   c>   
 Polar accumulation disabled

.OPERv   c>  
 XFOIL   c>  
 XFOIL   c>  
 XFOIL   c>  
 XFOIL   c>  
 XFOIL   c>  